--- WARNING: traj_opt is zero, but num_traj is not zero; setting num_traj to zero.
--- NOTE: sst_update is 0, setting io_form_auxinput4 = 0 and auxinput4_interval = 0 for all domains
--- NOTE: grid_fdda is 0 for domain      1, setting gfdda interval and ending time to 0 for that domain.
--- NOTE: both grid_sfdda and pxlsm_soil_nudge are 0 for domain      1, setting sgfdda interval and ending time to 0 for that domain.
--- NOTE: obs_nudge_opt is 0 for domain      1, setting obs nudging interval and ending time to 0 for that domain.
--- NOTE: bl_pbl_physics /= 4, implies mfshconv must be 0, resetting
Need MYNN PBL for icloud_bl = 1, resetting to 0
--- NOTE: RRTMG radiation is not used, setting:  o3input=0 to avoid data pre-processing
*************************************
Configuring physics suite 'conus'

         mp_physics:      8
         cu_physics:      6
      ra_lw_physics:      4
      ra_sw_physics:      4
     bl_pbl_physics:      2
  sf_sfclay_physics:      2
 sf_surface_physics:      9*

(* = option overrides suite setting)
*************************************
--- NOTE: RRTMG radiation is in use, setting:  levsiz=59, alevsiz=12, no_src_types=6
--- NOTE: num_soil_layers has been set to      4
WRF V3.9.1.1 MODEL
DYNAMICS OPTION: Eulerian Mass Coordinate
   alloc_space_field: domain            1 ,               5885784  bytes allocated
  med_initialdata_input: calling input_input
Timing for processing wrfinput file (stream 0) for domain        1:    0.01244 elapsed seconds
Max map factor in domain 1 =  1.00. Scale the dt in the model accordingly.
INPUT LandUse = "MODIFIED_IGBP_MODIS_NOAH"
 LANDUSE TYPE = "MODIFIED_IGBP_MODIS_NOAH" FOUND          33  CATEGORIES           2  SEASONS WATER CATEGORY =           17  SNOW CATEGORY =           15
ThompMP: read qr_acr_qg.dat stead of computing
ThompMP: read qr_acr_qs.dat instead of computing
ThompMP: read freezeH2O.dat stead of computing
Timing for Writing wrfout_d01_2010-09-01_00:00:00 for domain        1:    0.35338 elapsed seconds
Timing for processing lateral boundary for domain        1:    0.00323 elapsed seconds
 Tile Strategy is not specified. Assuming 1D-Y
WRF TILE   1 IS      1 IE      6 JS      1 JE      6
WRF NUMBER OF TILES =   1
 year =         2010 day =          244 hour =            0 minute =            0
 >>> See warnings.txt for possible issues in the run <<<
 
 
 avkdn,kup,ldown,lup,tsurf
   502.26062011718750        22.785053242341966        458.14458881499434        496.64796610017669        32.961951277864770     
 qn1,qf,qs,qh,qe
   440.97216812293397        6.9531247772410464E-310   37.688651414860438        378.21908275236365        25.064433955709887     
 
 qh_out =    378.21908275236365     
 qe_out =    25.064433955709887     
 HFX(I,J) =    378.219086    
 LH(I,J) =    25.0644341    
 
 
 avkdn,kup,ldown,lup,tsurf
   508.46514892578125        23.352295094203065        464.94437756162648        505.36203037645458        34.291745101833072     
 qn1,qf,qs,qh,qe
   444.69520328314570        6.9531247772410464E-310   38.091981160990279        251.57743385205998        155.02578827009543     
 
 qh_out =    251.57743385205998     
 qe_out =    155.02578827009543     
 HFX(I,J) =    251.577438    
 LH(I,J) =    155.025787    
 
 
 avkdn,kup,ldown,lup,tsurf
   514.08087158203125        37.621713946906631        462.15227620333849        501.94343716475663        33.831761794185958     
 qn1,qf,qs,qh,qe
   436.66803281392822        6.9531247772410464E-310   37.222372303151900        102.73810728083583        296.70755322994046     
 
 qh_out =    102.73810728083583     
 qe_out =    296.70755322994046     
 HFX(I,J) =    102.738106    
 LH(I,J) =    296.707550    
 
 
 avkdn,kup,ldown,lup,tsurf
   522.82281494140625        45.481603560584055        458.46175929334049        499.28447458832596        33.467542160673744     
 qn1,qf,qs,qh,qe
   436.51844262312693        6.9531247772410464E-310   37.206163293852001        8.7716412670449699        390.54063806222996     
 
 qh_out =    8.7716412670449699     
 qe_out =    390.54063806222996     
 HFX(I,J) =    8.77164173    
 LH(I,J) =    390.540649    
 
 
 avkdn,kup,ldown,lup,tsurf
   530.67816162109375        52.201715177972460        456.44401135926307        504.92764802495952        34.415474960540543     
 qn1,qf,qs,qh,qe
   429.99280834097306        6.9531247772410464E-310   36.499221543384444       -179.39201991954326        572.88560671713185     
 
 qh_out =   -179.39201991954326     
 qe_out =    572.88560671713185     
 HFX(I,J) =   -179.392014    
 LH(I,J) =    572.885620    
 
 
 avkdn,kup,ldown,lup,tsurf
   499.89370727539062        14.352785387835880        457.98786500236361        496.83113568220085        32.946389907760761     
 qn1,qf,qs,qh,qe
   446.69764697025801        6.9531247772410464E-310   38.308912305499881        332.21476397275279        76.173970692005341     
 
 qh_out =    332.21476397275279     
 qe_out =    76.173970692005341     
 HFX(I,J) =    332.214752    
 LH(I,J) =    76.1739731    
 
 
 avkdn,kup,ldown,lup,tsurf
   506.90621948242188        12.529210762225421        464.03492206183199        503.58505091855318        33.965579520857432     
 qn1,qf,qs,qh,qe
   454.82682029538699        6.9531247772410464E-310   39.189570527334091        360.31635808070257        55.320891687350347     
 
 qh_out =    360.31635808070257     
 qe_out =    55.320891687350347     
 HFX(I,J) =    360.316345    
 LH(I,J) =    55.3208923    
 
 
 avkdn,kup,ldown,lup,tsurf
   515.19018554687500        31.876610431943810        463.92099308300925        502.58607328830186        33.895995997388425     
 qn1,qf,qs,qh,qe
   444.64848533502106        6.9531247772410464E-310   38.086919588730524        265.21188516943113        141.34968057685941     
 
 qh_out =    265.21188516943113     
 qe_out =    141.34968057685941     
 HFX(I,J) =    265.211884    
 LH(I,J) =    141.349686    
 
 
 avkdn,kup,ldown,lup,tsurf
   520.87750244140625        46.465579992153351        459.05874805813102        499.78000543882075        33.546317849242627     
 qn1,qf,qs,qh,qe
   433.69064875518120        6.9531247772410464E-310   36.899820366387331       -1.9209504441696481        398.71177883296355     
 
 qh_out =   -1.9209504441696481     
 qe_out =    398.71177883296355     
 HFX(I,J) =   -1.92095041    
 LH(I,J) =    398.711792    
 
 
 avkdn,kup,ldown,lup,tsurf
   528.98278808593750        52.352536296940677        456.97018888497047        504.06321143635267        34.275283114430529     
 qn1,qf,qs,qh,qe
   429.53720087259893        6.9531247772410464E-310   36.449863071390681       -164.44248974041892        557.52982754162713     
 
 qh_out =   -164.44248974041892     
 qe_out =    557.52982754162713     
 HFX(I,J) =   -164.442490    
 LH(I,J) =    557.529846    
 
 
 avkdn,kup,ldown,lup,tsurf
   497.92929077148438        32.491239986187935        458.47534745052894        495.71038546010510        32.842815155918885     
 qn1,qf,qs,qh,qe
   428.20300275510647        6.9531247772410464E-310   36.305325608088332        225.68529599435166        166.21238115266647     
 
 qh_out =    225.68529599435166     
 qe_out =    166.21238115266647     
 HFX(I,J) =    225.685303    
 LH(I,J) =    166.212387    
 
 
 avkdn,kup,ldown,lup,tsurf
   505.27542114257812        23.432820269875482        464.64578828359214        503.19319449224685        33.959606307146522     
 qn1,qf,qs,qh,qe
   443.29519274451513        6.9531247772410464E-310   37.940313186602623        343.17626876664514        62.178610791267388     
 
 qh_out =    343.17626876664514     
 qe_out =    62.178610791267388     
 HFX(I,J) =    343.176270    
 LH(I,J) =    62.1786118    
 
 
 avkdn,kup,ldown,lup,tsurf
   512.85772705078125        47.637181577394344        461.75394450678783        501.56994804506132        33.841059353940530     
 qn1,qf,qs,qh,qe
   425.40451873259832        6.9531247772410464E-310   36.002156024416081        291.03761913341441        98.364743574767814     
 
 qh_out =    291.03761913341441     
 qe_out =    98.364743574767814     
 HFX(I,J) =    291.037628    
 LH(I,J) =    98.3647461    
 
 
 avkdn,kup,ldown,lup,tsurf
   518.99237060546875        48.235335742574833        459.48511608676210        501.58856860358850        33.844461701743064     
 qn1,qf,qs,qh,qe
   428.65363320678046        6.9531247772410464E-310   36.354146177799890       -34.684862107787353        426.98434913676789     
 
 qh_out =   -34.684862107787353     
 qe_out =    426.98434913676789     
 HFX(I,J) =   -34.6848602    
 LH(I,J) =    426.984344    
 
 
 avkdn,kup,ldown,lup,tsurf
   527.26690673828125        52.726691459517042        454.90989398454161        504.75065022894205        34.404531543578116     
 qn1,qf,qs,qh,qe
   424.69945903436383        6.9531247772410464E-310   35.925775413070120       -217.36713504223951        606.14081866353320     
 
 qh_out =   -217.36713504223951     
 qe_out =    606.14081866353320     
 HFX(I,J) =   -217.367142    
 LH(I,J) =    606.140808    
 
 
 avkdn,kup,ldown,lup,tsurf
   496.26126098632812        23.010362786741862        458.60432575672462        496.46440256748929        32.919352232478417     
 qn1,qf,qs,qh,qe
   435.39083250492007        6.9531247772410464E-310   37.084007988020716        356.33631356979731        41.970510947102063     
 
 qh_out =    356.33631356979731     
 qe_out =    41.970510947102063     
 HFX(I,J) =    356.336304    
 LH(I,J) =    41.9705124    
 
 
 avkdn,kup,ldown,lup,tsurf
   503.64541625976562        19.520746123593220        461.41564852916258        503.63846727596490        34.015455339336881     
 qn1,qf,qs,qh,qe
   441.90184004223266        6.9531247772410464E-310   37.789366272366863        326.94866567575423        77.163808094111559     
 
 qh_out =    326.94866567575423     
 qe_out =    77.163808094111559     
 HFX(I,J) =    326.948669    
 LH(I,J) =    77.1638107    
 
 
 avkdn,kup,ldown,lup,tsurf
   511.62677001953125        13.077242187933145        460.41896440434732        506.64419706574455        34.445792742343713     
 qn1,qf,qs,qh,qe
   452.32430215789367        6.9531247772410464E-310   38.918467075818192        293.66395131871650        119.74188376335898     
 
 qh_out =    293.66395131871650     
 qe_out =    119.74188376335898     
 HFX(I,J) =    293.663940    
 LH(I,J) =    119.741882    
 
 
 avkdn,kup,ldown,lup,tsurf
   516.99206542968750        45.441639206771711        459.16784549978445        504.01842276331189        34.217059931301378     
 qn1,qf,qs,qh,qe
   426.69988600601857        6.9531247772410464E-310   36.142489709886505       -78.745433150005567        469.30282944613765     
 
 qh_out =   -78.745433150005567     
 qe_out =    469.30282944613765     
 HFX(I,J) =   -78.7454300    
 LH(I,J) =    469.302826    
 
 
 avkdn,kup,ldown,lup,tsurf
   525.30285644531250        52.530286427293504        457.32665988383530        505.88320762156354        34.565797599599762     
 qn1,qf,qs,qh,qe
   424.21602228029076        6.9531247772410464E-310   35.873403097265125       -206.46145358243848        594.80407276546407     
 
 qh_out =   -206.46145358243848     
 qe_out =    594.80407276546407     
 HFX(I,J) =   -206.461456    
 LH(I,J) =    594.804077    
 
 
 avkdn,kup,ldown,lup,tsurf
   494.66067504882812        5.4185480041607388        458.86657307035097        498.28442127394584        33.115329660865811     
 qn1,qf,qs,qh,qe
   449.82423910121764        6.9531247772410464E-310   38.647625016833061        393.14876189535198        18.027852189032600     
 
 qh_out =    393.14876189535198     
 qe_out =    18.027852189032600     
 HFX(I,J) =    393.148773    
 LH(I,J) =    18.0278530    
 
 
 avkdn,kup,ldown,lup,tsurf
   502.05813598632812        6.5830486062115607        458.64517571214213        504.32671664449771        34.056851233454069     
 qn1,qf,qs,qh,qe
   449.79358055913957        6.9531247772410464E-310   38.644306657560797        369.16009140740323        41.989182494175566     
 
 qh_out =    369.16009140740323     
 qe_out =    41.989182494175566     
 HFX(I,J) =    369.160095    
 LH(I,J) =    41.9891815    
 
 
 avkdn,kup,ldown,lup,tsurf
   506.85122680664062        40.072736799455861        458.55139380125996        504.21044864501897        34.224262060371657     
 qn1,qf,qs,qh,qe
   421.11939900269721        6.9531247772410464E-310   35.537934239395675       -32.697550797030829        418.27901556033237     
 
 qh_out =   -32.697550797030829     
 qe_out =    418.27901556033237     
 HFX(I,J) =   -32.6975517    
 LH(I,J) =    418.279022    
 
 
 avkdn,kup,ldown,lup,tsurf
   514.84271240234375        51.484272007409800        458.45403858047371        503.96082468466284        34.250150916624193     
 qn1,qf,qs,qh,qe
   417.85165429074482        6.9531247772410464E-310   35.183929888123700       -170.19090381408807        552.85862821670923     
 
 qh_out =   -170.19090381408807     
 qe_out =    552.85862821670923     
 HFX(I,J) =   -170.190903    
 LH(I,J) =    552.858643    
 
 
 avkdn,kup,ldown,lup,tsurf
   522.96154785156250        52.296155564429682        458.30995108723835        505.29518066785238        34.464260075624452     
 qn1,qf,qs,qh,qe
   423.68016270651879        6.9531247772410464E-310   35.815351642574797       -184.79471108785435        572.65952215179834     
 
 qh_out =   -184.79471108785435     
 qe_out =    572.65952215179834     
 HFX(I,J) =   -184.794708    
 LH(I,J) =    572.659546    
Timing for main: time 2010-09-01_00:05:00 on domain   1:    0.58772 elapsed seconds
Timing for Writing wrfout_d01_2010-09-01_00:05:00 for domain        1:    0.00840 elapsed seconds
 year =         2010 day =          244 hour =            0 minute =            5
 
 
 avkdn,kup,ldown,lup,tsurf
   502.26062011718750        22.785053242341966        458.23045208822941        496.86120528655846        32.995389606617394     
 qn1,qf,qs,qh,qe
   440.84479220786795        6.9531247772410464E-310   37.674852357497770        377.96473936573341        25.205200484636787     
 
 qh_out =    377.96473936573341     
 qe_out =    25.205200484636787     
 HFX(I,J) =    377.964752    
 LH(I,J) =    25.2052002    
 
 
 avkdn,kup,ldown,lup,tsurf
   508.46514892578125        23.352295094203065        464.99127207289428        505.65286499898559        34.337048989483456     
 qn1,qf,qs,qh,qe
   444.45126317199174        6.9531247772410464E-310   38.065554315159943        249.93403385501531        156.45167500181648     
 
 qh_out =    249.93403385501531     
 qe_out =    156.45167500181648     
 HFX(I,J) =    249.934036    
 LH(I,J) =    156.451675    
 
 
 avkdn,kup,ldown,lup,tsurf
   514.08087158203125        37.621713946906631        462.18024521244160        502.21034495988636        33.873972318952887     
 qn1,qf,qs,qh,qe
   436.42909402893707        6.9531247772410464E-310   37.196487266767214        99.831807247488200        299.40079951468164     
 
 qh_out =    99.831807247488200     
 qe_out =    299.40079951468164     
 HFX(I,J) =    99.8318100    
 LH(I,J) =    299.400787    
 
 
 avkdn,kup,ldown,lup,tsurf
   522.82281494140625        45.481603560584055        458.49888199351443        499.44096355153556        33.492343998108872     
 qn1,qf,qs,qh,qe
   436.39907635806873        6.9531247772410464E-310   37.193231948982536        6.8563479396187290        392.34949646946745     
 
 qh_out =    6.8563479396187290     
 qe_out =    392.34949646946745     
 HFX(I,J) =    6.85634804    
 LH(I,J) =    392.349487    
 
 
 avkdn,kup,ldown,lup,tsurf
   530.67816162109375        52.201715177972460        456.51479255824603        504.97721028199601        34.422817770827351     
 qn1,qf,qs,qh,qe
   430.01402728281636        6.9531247772410464E-310   36.501520262115044       -179.28537841530891        572.79788543601023     
 
 qh_out =   -179.28537841530891     
 qe_out =    572.79788543601023     
 HFX(I,J) =   -179.285385    
 LH(I,J) =    572.797913    
 
 
 avkdn,kup,ldown,lup,tsurf
   499.89370727539062        14.352785387835880        458.21262201604145        497.05589269488451        32.980934541084885     
 qn1,qf,qs,qh,qe
   446.69764697025801        6.9531247772410464E-310   38.308912305499881        331.50325296342339        76.885481701334712     
 
 qh_out =    331.50325296342339     
 qe_out =    76.885481701334712     
 HFX(I,J) =    331.503265    
 LH(I,J) =    76.8854828    
 
 
 avkdn,kup,ldown,lup,tsurf
   506.90621948242188        12.529210762225421        463.17410148712185        502.72423039665523        33.834480126808053     
 qn1,qf,qs,qh,qe
   454.82682029538688        6.9531247772410464E-310   39.189570527334084        358.24114115321248        57.396108614840323     
 
 qh_out =    358.24114115321248     
 qe_out =    57.396108614840323     
 HFX(I,J) =    358.241150    
 LH(I,J) =    57.3961067    
 
 
 avkdn,kup,ldown,lup,tsurf
   515.19018554687500        31.876610431943810        462.58889310965804        502.24327907332230        33.849539019074641     
 qn1,qf,qs,qh,qe
   443.65917958967589        6.9531247772410464E-310   37.979744799102484        259.55465039438383        146.12478439618957     
 
 qh_out =    259.55465039438383     
 qe_out =    146.12478439618957     
 HFX(I,J) =    259.554657    
 LH(I,J) =    146.124786    
 
 
 avkdn,kup,ldown,lup,tsurf
   520.87750244140625        46.465579992153351        457.88574900287983        500.27071206174440        33.633550942330857     
 qn1,qf,qs,qh,qe
   432.02694309653378        6.9531247772410464E-310   36.719585587015260       -24.285855870466321        419.59321337998483     
 
 qh_out =   -24.285855870466321     
 qe_out =    419.59321337998483     
 HFX(I,J) =   -24.2858562    
 LH(I,J) =    419.593201    
 
 
 avkdn,kup,ldown,lup,tsurf
   528.98278808593750        52.352536296940677        457.00475771298255        504.10984545611302        34.282454656177734     
 qn1,qf,qs,qh,qe
   429.52513567985625        6.9531247772410464E-310   36.448556008861679       -164.79391079400739        557.87049046500192     
 
 qh_out =   -164.79391079400739     
 qe_out =    557.87049046500192     
 HFX(I,J) =   -164.793915    
 LH(I,J) =    557.870483    
 
 
 avkdn,kup,ldown,lup,tsurf
   497.92929077148438        32.491239986187935        458.68217387667283        495.91721188408201        32.874636627179008     
 qn1,qf,qs,qh,qe
   428.20300275510641        6.9531247772410464E-310   36.305325608088324        224.08714422018005        167.81053292683805     
 
 qh_out =    224.08714422018005     
 qe_out =    167.81053292683805     
 HFX(I,J) =    224.087143    
 LH(I,J) =    167.810532    
 
 
 avkdn,kup,ldown,lup,tsurf
   505.27542114257812        23.432820269875482        462.77891653937843        502.33156677889497        33.833505093852267     
 qn1,qf,qs,qh,qe
   442.28994871734801        6.9531247772410464E-310   37.831411748918953        340.10831134387797        64.350225624551072     
 
 qh_out =    340.10831134387797     
 qe_out =    64.350225624551072     
 HFX(I,J) =    340.108307    
 LH(I,J) =    64.3502274    
 
 
 avkdn,kup,ldown,lup,tsurf
   512.85772705078125        47.637181577394344        459.96571684383798        501.12891826176786        33.784827767710752     
 qn1,qf,qs,qh,qe
   424.05732089551418        6.9531247772410464E-310   35.856209593365065        286.20313730272096        101.99797399942814     
 
 qh_out =    286.20313730272096     
 qe_out =    101.99797399942814     
 HFX(I,J) =    286.203125    
 LH(I,J) =    101.997971    
 
 
 avkdn,kup,ldown,lup,tsurf
   518.99237060546875        48.235335742574833        458.77642061719826        502.01127158154208        33.917483685106177     
 qn1,qf,qs,qh,qe
   427.52223472242548        6.9531247772410464E-310   36.231578000464005       -50.505953165968037        441.79660988792949     
 
 qh_out =   -50.505953165968037     
 qe_out =    441.79660988792949     
 HFX(I,J) =   -50.5059547    
 LH(I,J) =    441.796600    
 
 
 avkdn,kup,ldown,lup,tsurf
   527.26690673828125        52.726691459517042        454.93654233067303        504.75306198180169        34.404703722734894     
 qn1,qf,qs,qh,qe
   424.72369562763561        6.9531247772410464E-310   35.928401044047021       -217.02018146578860        605.81547604937714     
 
 qh_out =   -217.02018146578860     
 qe_out =    605.81547604937714     
 HFX(I,J) =   -217.020187    
 LH(I,J) =    605.815491    
 
 
 avkdn,kup,ldown,lup,tsurf
   496.26126098632812        23.010362786741862        458.83285773996698        496.69293455339209        32.954486308770242     
 qn1,qf,qs,qh,qe
   435.39083250492013        6.9531247772410464E-310   37.084007988020716        356.04008372946964        42.266740787429761     
 
 qh_out =    356.04008372946964     
 qe_out =    42.266740787429761     
 HFX(I,J) =    356.040070    
 LH(I,J) =    42.2667389    
 
 
 avkdn,kup,ldown,lup,tsurf
   503.64541625976562        19.520746123593220        459.60372674816432        502.74566939679045        33.883553549394549     
 qn1,qf,qs,qh,qe
   440.98271616171337        6.9531247772410464E-310   37.689794518330963        324.68341307859527        78.609508564787134     
 
 qh_out =    324.68341307859527     
 qe_out =    78.609508564787134     
 HFX(I,J) =    324.683411    
 LH(I,J) =    78.6095123    
 
 
 avkdn,kup,ldown,lup,tsurf
   511.62677001953125        13.077242187933145        459.24706846725076        506.37839365679292        34.408562066329708     
 qn1,qf,qs,qh,qe
   451.41820962132442        6.9531247772410464E-310   38.820307048854843        290.41175278418757        122.18614978828199     
 
 qh_out =    290.41175278418757     
 qe_out =    122.18614978828199     
 HFX(I,J) =    290.411743    
 LH(I,J) =    122.186150    
 
 
 avkdn,kup,ldown,lup,tsurf
   516.99206542968750        45.441639206771711        458.74566790799605        503.97399217560707        34.213040099239564     
 qn1,qf,qs,qh,qe
   426.32213898591272        6.9531247772410464E-310   36.101567113878836       -83.456691493779545        473.67726336581342     
 
 qh_out =   -83.456691493779545     
 qe_out =    473.67726336581342     
 HFX(I,J) =   -83.4566879    
 LH(I,J) =    473.677277    
 
 
 avkdn,kup,ldown,lup,tsurf
   525.30285644531250        52.530286427293504        457.28283413097023        505.81865681380026        34.555864943269512     
 qn1,qf,qs,qh,qe
   424.23674733518902        6.9531247772410464E-310   35.875648311579234       -205.88764900990731        594.24874803351713     
 
 qh_out =   -205.88764900990731     
 qe_out =    594.24874803351713     
 HFX(I,J) =   -205.887650    
 LH(I,J) =    594.248718    
 
 
 avkdn,kup,ldown,lup,tsurf
   494.66067504882812        5.4185480041607388        458.96662713010386        498.49838508104926        33.148448947031575     
 qn1,qf,qs,qh,qe
   449.71032934969725        6.9531247772410464E-310   38.635284794082096        392.95497149333312        18.120073062282035     
 
 qh_out =    392.95497149333312     
 qe_out =    18.120073062282035     
 HFX(I,J) =    392.954987    
 LH(I,J) =    18.1200733    
 
 
 avkdn,kup,ldown,lup,tsurf
   502.05813598632812        6.5830486062115607        458.67433960340094        504.43346038903320        34.073280914183741     
 qn1,qf,qs,qh,qe
   449.71600070689834        6.9531247772410464E-310   38.635902173144345        368.97739486050773        42.102703673246296     
 
 qh_out =    368.97739486050773     
 qe_out =    42.102703673246296     
 HFX(I,J) =    368.977386    
 LH(I,J) =    42.1027031    
 
 
 avkdn,kup,ldown,lup,tsurf
   506.85122680664062        40.072736799455861        458.53606724644106        504.24227441285490        34.229406307291626     
 qn1,qf,qs,qh,qe
   421.07224668061644        6.9531247772410464E-310   35.532826071285484       -33.317206645372153        418.85662725470314     
 
 qh_out =   -33.317206645372153     
 qe_out =    418.85662725470314     
 HFX(I,J) =   -33.3172073    
 LH(I,J) =    418.856628    
 
 
 avkdn,kup,ldown,lup,tsurf
   514.84271240234375        51.484272007409800        458.41667539754161        503.93845204037609        34.246874987263936     
 qn1,qf,qs,qh,qe
   417.83666375209953        6.9531247772410464E-310   35.182305913079595       -170.31820455418938        552.97256239320927     
 
 qh_out =   -170.31820455418938     
 qe_out =    552.97256239320927     
 HFX(I,J) =   -170.318207    
 LH(I,J) =    552.972534    
 
 
 avkdn,kup,ldown,lup,tsurf
   522.96154785156250        52.296155564429682        458.25274598333561        505.19309527740251        34.448439335652836     
 qn1,qf,qs,qh,qe
   423.72504299306598        6.9531247772410464E-310   35.820213673689864       -183.72329568198649        571.62812500136260     
 
 qh_out =   -183.72329568198649     
 qe_out =    571.62812500136260     
 HFX(I,J) =   -183.723297    
 LH(I,J) =    571.628113    
Timing for main: time 2010-09-01_00:10:00 on domain   1:    0.05695 elapsed seconds
Timing for Writing wrfout_d01_2010-09-01_00:10:00 for domain        1:    0.01785 elapsed seconds
 year =         2010 day =          244 hour =            0 minute =           10
 
 
 avkdn,kup,ldown,lup,tsurf
   502.26062011718750        22.785053242341966        458.31699900395449        497.07454196969150        33.028828882131990     
 qn1,qf,qs,qh,qe
   440.71800243852567        6.9531247772410464E-310   37.661116799254685        377.71107071106991        25.345814928201072     
 
 qh_out =    377.71107071106991     
 qe_out =    25.345814928201072     
 HFX(I,J) =    377.711060    
 LH(I,J) =    25.3458157    
 
 
 avkdn,kup,ldown,lup,tsurf
   508.46514892578125        23.352295094203065        465.03944081445172        505.94442840703061        34.382440672929548     
 qn1,qf,qs,qh,qe
   444.20786850561626        6.9531247772410464E-310   38.039186559181630        248.28928441325831        157.87939753317633     
 
 qh_out =    248.28928441325831     
 qe_out =    157.87939753317633     
 HFX(I,J) =    248.289291    
 LH(I,J) =    157.879395    
 
 
 avkdn,kup,ldown,lup,tsurf
   514.08087158203125        37.621713946906631        462.20953652838153        502.47760632679467        33.916213029477582     
 qn1,qf,qs,qh,qe
   436.19112397905292        6.9531247772410464E-310   37.170707176691231        96.928073821103226        302.09234298125847     
 
 qh_out =    96.928073821103226     
 qe_out =    302.09234298125847     
 HFX(I,J) =    96.9280701    
 LH(I,J) =    302.092346    
 
 
 avkdn,kup,ldown,lup,tsurf
   522.82281494140625        45.481603560584055        458.53886187260775        499.60979751403693        33.519096160129273     
 qn1,qf,qs,qh,qe
   436.27022227248239        6.9531247772410464E-310   37.179272756929869        4.7863457189144469        394.30460379663805     
 
 qh_out =    4.7863457189144469     
 qe_out =    394.30460379663805     
 HFX(I,J) =    4.78634548    
 LH(I,J) =    394.304596    
 
 
 avkdn,kup,ldown,lup,tsurf
   530.67816162109375        52.201715177972460        456.58172830382864        505.01380905175949        34.428124126783182     
 qn1,qf,qs,qh,qe
   430.04436425853822        6.9531247772410464E-310   36.504806767862434       -178.99797353814580        572.53753102882160     
 
 qh_out =   -178.99797353814580     
 qe_out =    572.53753102882160     
 HFX(I,J) =   -178.997971    
 LH(I,J) =    572.537537    
 
 
 avkdn,kup,ldown,lup,tsurf
   499.89370727539062        14.352785387835880        458.43746174400479        497.28073242185314        33.015480190884247     
 qn1,qf,qs,qh,qe
   446.69764697025801        6.9531247772410464E-310   38.308912305499881        330.79259791235154        77.596136752406593     
 
 qh_out =    330.79259791235154     
 qe_out =    77.596136752406593     
 HFX(I,J) =    330.792603    
 LH(I,J) =    77.5961380    
 
 
 avkdn,kup,ldown,lup,tsurf
   506.90621948242188        12.529210762225421        461.78379060968041        502.48158157325179        33.801578600809677     
 qn1,qf,qs,qh,qe
   453.67915832664568        6.9531247772410464E-310   39.065240486495547        355.22292036884960        59.390997471300523     
 
 qh_out =    355.22292036884960     
 qe_out =    59.390997471300523     
 HFX(I,J) =    355.222931    
 LH(I,J) =    59.3909988    
 
 
 avkdn,kup,ldown,lup,tsurf
   515.19018554687500        31.876610431943810        461.03547436112535        501.88976038285432        33.802653733024684     
 qn1,qf,qs,qh,qe
   442.45927954680178        6.9531247772410464E-310   37.849755627125283        253.58145109640884        151.02807282326765     
 
 qh_out =    253.58145109640884     
 qe_out =    151.02807282326765     
 HFX(I,J) =    253.581451    
 LH(I,J) =    151.028076    
 
 
 avkdn,kup,ldown,lup,tsurf
   520.87750244140625        46.465579992153351        457.46419215702122        500.26831703377013        33.636276183180243     
 qn1,qf,qs,qh,qe
   431.60778128566722        6.9531247772410464E-310   36.674176390917339       -29.488123210499282        424.42172810524914     
 
 qh_out =   -29.488123210499282     
 qe_out =    424.42172810524914     
 HFX(I,J) =   -29.4881229    
 LH(I,J) =    424.421722    
 
 
 avkdn,kup,ldown,lup,tsurf
   528.98278808593750        52.352536296940677        457.03958108071862        504.15685491045508        34.289683613944725     
 qn1,qf,qs,qh,qe
   429.51294959224828        6.9531247772410464E-310   36.447235849389124       -165.14850941642061        558.21422315927975     
 
 qh_out =   -165.14850941642061     
 qe_out =    558.21422315927975     
 HFX(I,J) =   -165.148514    
 LH(I,J) =    558.214233    
 
 
 avkdn,kup,ldown,lup,tsurf
   497.92929077148438        32.491239986187935        458.90195692925784        496.13699493436422        32.908440677044403     
 qn1,qf,qs,qh,qe
   428.20300275510647        6.9531247772410464E-310   36.305325608088332        222.39824648207156        169.49943066494657     
 
 qh_out =    222.39824648207156     
 qe_out =    169.49943066494657     
 HFX(I,J) =    222.398239    
 LH(I,J) =    169.499435    
 
 
 avkdn,kup,ldown,lup,tsurf
   505.27542114257812        23.432820269875482        461.07445837499904        502.02865757314794        33.794486712472455     
 qn1,qf,qs,qh,qe
   440.88839976208885        6.9531247772410464E-310   37.679577276803855        336.29450678248224        66.914315702802767     
 
 qh_out =    336.29450678248224     
 qe_out =    66.914315702802767     
 HFX(I,J) =    336.294495    
 LH(I,J) =    66.9143143    
 
 
 avkdn,kup,ldown,lup,tsurf
   512.85772705078125        47.637181577394344        459.13093211782814        501.02303580842681        33.774632841058548     
 qn1,qf,qs,qh,qe
   423.32841864271904        6.9531247772410464E-310   35.777245183348832        283.51231682114928        104.03885663822095     
 
 qh_out =    283.51231682114928     
 qe_out =    104.03885663822095     
 HFX(I,J) =    283.512329    
 LH(I,J) =    104.038857    
 
 
 avkdn,kup,ldown,lup,tsurf
   518.99237060546875        48.235335742574833        458.30551433973801        501.95972377796522        33.912833568107473     
 qn1,qf,qs,qh,qe
   427.10287622406463        6.9531247772410464E-310   36.186147493436486       -55.658136330093669        446.57486506072183     
 
 qh_out =   -55.658136330093669     
 qe_out =    446.57486506072183     
 HFX(I,J) =   -55.6581345    
 LH(I,J) =    446.574860    
 
 
 avkdn,kup,ldown,lup,tsurf
   527.26690673828125        52.726691459517042        454.96306250541926        504.75510754877189        34.404818508853168     
 qn1,qf,qs,qh,qe
   424.74817023541152        6.9531247772410464E-310   35.931052459928921       -216.66826943659919        605.48538721208183     
 
 qh_out =   -216.66826943659919     
 qe_out =    605.48538721208183     
 HFX(I,J) =   -216.668274    
 LH(I,J) =    605.485413    
 
 
 avkdn,kup,ldown,lup,tsurf
   496.26126098632812        23.010362786741862        459.06128831044498        496.92136512652945        32.989592708688683     
 qn1,qf,qs,qh,qe
   435.39083250492007        6.9531247772410464E-310   37.084007988020716        355.74423155896636        42.562592957932992     
 
 qh_out =    355.74423155896636     
 qe_out =    42.562592957932992     
 HFX(I,J) =    355.744232    
 LH(I,J) =    42.5625916    
 
 
 avkdn,kup,ldown,lup,tsurf
   503.64541625976562        19.520746123593220        458.72854452820212        502.86711637633294        33.906392146868605     
 qn1,qf,qs,qh,qe
   439.98608697249898        6.9531247772410464E-310   37.581826355826699        321.62541561570606        80.778845000966200     
 
 qh_out =    321.62541561570606     
 qe_out =    80.778845000966200     
 HFX(I,J) =    321.625427    
 LH(I,J) =    80.7788467    
 
 
 avkdn,kup,ldown,lup,tsurf
   511.62677001953125        13.077242187933145        458.75402109269777        506.75268105093568        34.468177573474101     
 qn1,qf,qs,qh,qe
   450.55087484908427        6.9531247772410464E-310   38.726345779786577        286.77155242078277        125.05297664851491     
 
 qh_out =    286.77155242078277     
 qe_out =    125.05297664851491     
 HFX(I,J) =    286.771545    
 LH(I,J) =    125.052979    
 
 
 avkdn,kup,ldown,lup,tsurf
   516.99206542968750        45.441639206771711        458.73381986088776        504.02490823662436        34.221223342868797     
 qn1,qf,qs,qh,qe
   426.25937487733756        6.9531247772410464E-310   36.094767668423835       -84.435412983452125        474.60002019236583     
 
 qh_out =   -84.435412983452125     
 qe_out =    474.60002019236583     
 HFX(I,J) =   -84.4354095    
 LH(I,J) =    474.600006    
 
 
 avkdn,kup,ldown,lup,tsurf
   525.30285644531250        52.530286427293504        457.23902082482289        505.75411317973584        34.545932368663557     
 qn1,qf,qs,qh,qe
   424.25747766310604        6.9531247772410464E-310   35.877894097137037       -205.31405459386184        593.69363815983081     
 
 qh_out =   -205.31405459386184     
 qe_out =    593.69363815983081     
 HFX(I,J) =   -205.314056    
 LH(I,J) =    593.693665    
 
 
 avkdn,kup,ldown,lup,tsurf
   494.66067504882812        5.4185480041607388        459.06313561455318        498.68698254562565        33.177611893723714     
 qn1,qf,qs,qh,qe
   449.61824036554782        6.9531247772410464E-310   38.625308487733022        392.79592085180730        18.197011026007495     
 
 qh_out =    392.79592085180730     
 qe_out =    18.197011026007495     
 HFX(I,J) =    392.795929    
 LH(I,J) =    18.1970119    
 
 
 avkdn,kup,ldown,lup,tsurf
   502.05813598632812        6.5830486062115607        458.70347293818259        504.54003665992974        34.089682149657214     
 qn1,qf,qs,qh,qe
   449.63855777181783        6.9531247772410464E-310   38.627512521421046        368.79491517167736        42.216130078719416     
 
 qh_out =    368.79491517167736     
 qe_out =    42.216130078719416     
 HFX(I,J) =    368.794922    
 LH(I,J) =    42.2161293    
 
 
 avkdn,kup,ldown,lup,tsurf
   506.85122680664062        40.072736799455861        458.52064367606874        504.27373509172992        34.234493097761913     
 qn1,qf,qs,qh,qe
   421.02536243194686        6.9531247772410464E-310   35.527746944460837       -33.932864634243572        419.43048012172960     
 
 qh_out =   -33.932864634243572     
 qe_out =    419.43048012172960     
 HFX(I,J) =   -33.9328651    
 LH(I,J) =    419.430481    
 
 
 avkdn,kup,ldown,lup,tsurf
   514.84271240234375        51.484272007409800        458.37925523003793        503.91571754810786        34.243541594435044     
 qn1,qf,qs,qh,qe
   417.82197807686396        6.9531247772410464E-310   35.180714964905370       -170.43958890725264        553.08085201921119     
 
 qh_out =   -170.43958890725264     
 qe_out =    553.08085201921119     
 HFX(I,J) =   -170.439590    
 LH(I,J) =    553.080872    
 
 
 avkdn,kup,ldown,lup,tsurf
   522.96154785156250        52.296155564429682        458.19952278798354        505.10364825056905        34.434599946781475     
 qn1,qf,qs,qh,qe
   423.76126682454736        6.9531247772410464E-310   35.824137922158819       -182.82933001350824        570.76645891589681     
 
 qh_out =   -182.82933001350824     
 qe_out =    570.76645891589681     
 HFX(I,J) =   -182.829330    
 LH(I,J) =    570.766479    
Timing for main: time 2010-09-01_00:15:00 on domain   1:    0.06129 elapsed seconds
Timing for Writing wrfout_d01_2010-09-01_00:15:00 for domain        1:    0.00842 elapsed seconds
 year =         2010 day =          244 hour =            0 minute =           15
 
 
 avkdn,kup,ldown,lup,tsurf
   502.26062011718750        22.785053242341966        458.40392388290718        497.28814667833905        33.062297783751106     
 qn1,qf,qs,qh,qe
   440.59132260688784        6.9531247772410464E-310   37.647393150929503        377.45724988336815        25.486679572590180     
 
 qh_out =    377.45724988336815     
 qe_out =    25.486679572590180     
 HFX(I,J) =    377.457245    
 LH(I,J) =    25.4866791    
 
 
 avkdn,kup,ldown,lup,tsurf
   508.46514892578125        23.352295094203065        465.08942241595287        506.23600428170317        34.427805383835299     
 qn1,qf,qs,qh,qe
   443.96627423256132        6.9531247772410464E-310   38.013013845816403        246.65089377826487        159.30236660848004     
 
 qh_out =    246.65089377826487     
 qe_out =    159.30236660848004     
 HFX(I,J) =    246.650894    
 LH(I,J) =    159.302368    
 
 
 avkdn,kup,ldown,lup,tsurf
   514.08087158203125        37.621713946906631        462.24007074466573        502.74503743977834        33.958455230154513     
 qn1,qf,qs,qh,qe
   435.95422708348383        6.9531247772410464E-310   37.145043345005412        94.028379141307823        304.78080459717057     
 
 qh_out =    94.028379141307823     
 qe_out =    304.78080459717057     
 HFX(I,J) =    94.0283813    
 LH(I,J) =    304.780792    
 
 
 avkdn,kup,ldown,lup,tsurf
   522.82281494140625        45.481603560584055        458.57916688441981        499.77851470489350        33.545820254533837     
 qn1,qf,qs,qh,qe
   436.14181009124206        6.9531247772410464E-310   37.165361437846130        2.7193549989834764        396.25709365441247     
 
 qh_out =    2.7193549989834764     
 qe_out =    396.25709365441247     
 HFX(I,J) =    2.71935511    
 LH(I,J) =    396.257080    
 
 
 avkdn,kup,ldown,lup,tsurf
   530.67816162109375        52.201715177972460        456.64434256762428        505.03777858091507        34.431451367454358     
 qn1,qf,qs,qh,qe
   430.08300899308728        6.9531247772410464E-310   36.508993280828207       -178.54266475536036        572.11668046761940     
 
 qh_out =   -178.54266475536036     
 qe_out =    572.11668046761940     
 HFX(I,J) =   -178.542664    
 LH(I,J) =    572.116699    
 
 
 avkdn,kup,ldown,lup,tsurf
   499.89370727539062        14.352785387835880        458.66257089855355        497.50584157540612        33.050055526459367     
 qn1,qf,qs,qh,qe
   446.69764697025801        6.9531247772410464E-310   38.308912305499881        330.08266932843270        78.306065336325432     
 
 qh_out =    330.08266932843270     
 qe_out =    78.306065336325432     
 HFX(I,J) =    330.082672    
 LH(I,J) =    78.3060684    
 
 
 avkdn,kup,ldown,lup,tsurf
   506.90621948242188        12.529210762225421        461.07610567833598        502.56686057201034        33.817398731431801     
 qn1,qf,qs,qh,qe
   452.88619443995987        6.9531247772410464E-310   38.979336069428150        353.10873927794347        60.798119092588259     
 
 qh_out =    353.10873927794347     
 qe_out =    60.798119092588259     
 HFX(I,J) =    353.108734    
 LH(I,J) =    60.7981186    
 
 
 avkdn,kup,ldown,lup,tsurf
   515.19018554687500        31.876610431943810        460.41151260530540        502.12302246821088        33.843201510925837     
 qn1,qf,qs,qh,qe
   441.60205571172702        6.9531247772410464E-310   37.756889711183170        248.79352666696127        155.05163933358259     
 
 qh_out =    248.79352666696127     
 qe_out =    155.05163933358259     
 HFX(I,J) =    248.793533    
 LH(I,J) =    155.051636    
 
 
 avkdn,kup,ldown,lup,tsurf
   520.87750244140625        46.465579992153351        457.32826054067840        500.56716970663376        33.685102082350774     
 qn1,qf,qs,qh,qe
   431.17299699872376        6.9531247772410464E-310   36.627074759914052       -35.862289307212222        430.40821154602190     
 
 qh_out =   -35.862289307212222     
 qe_out =    430.40821154602190     
 HFX(I,J) =   -35.8622894    
 LH(I,J) =    430.408203    
 
 
 avkdn,kup,ldown,lup,tsurf
   528.98278808593750        52.352536296940677        457.07426452435107        504.20332176731256        34.296826555765684     
 qn1,qf,qs,qh,qe
   429.50116617802547        6.9531247772410464E-310   36.445959312866023       -165.49540767267234        558.55061453783185     
 
 qh_out =   -165.49540767267234     
 qe_out =    558.55061453783185     
 HFX(I,J) =   -165.495407    
 LH(I,J) =    558.550598    
 
 
 avkdn,kup,ldown,lup,tsurf
   497.92929077148438        32.491239986187935        459.12200578838906        496.35704379118999        32.942274392401529     
 qn1,qf,qs,qh,qe
   428.20300275510647        6.9531247772410464E-310   36.305325608088332        220.70931590177580        171.18836124524233     
 
 qh_out =    220.70931590177580     
 qe_out =    171.18836124524233     
 HFX(I,J) =    220.709320    
 LH(I,J) =    171.188354    
 
 
 avkdn,kup,ldown,lup,tsurf
   505.27542114257812        23.432820269875482        460.42643570976145        502.19834263026979        33.824525015032215     
 qn1,qf,qs,qh,qe
   440.07069204101197        6.9531247772410464E-310   37.590992272542479        333.90654656329946        68.573153205170001     
 
 qh_out =    333.90654656329946     
 qe_out =    68.573153205170001     
 HFX(I,J) =    333.906555    
 LH(I,J) =    68.5731506    
 
 
 avkdn,kup,ldown,lup,tsurf
   512.85772705078125        47.637181577394344        459.27794067717849        501.46310048764553        33.844103630631608     
 qn1,qf,qs,qh,qe
   423.03536251935094        6.9531247772410464E-310   35.745497436933356        282.05981306059084        105.23005202182672     
 
 qh_out =    282.05981306059084     
 qe_out =    105.23005202182672     
 HFX(I,J) =    282.059814    
 LH(I,J) =    105.230049    
 
 
 avkdn,kup,ldown,lup,tsurf
   518.99237060546875        48.235335742574833        458.44433023346511        502.19274987413934        33.949030323736714     
 qn1,qf,qs,qh,qe
   427.00866602883309        6.9531247772410464E-310   36.175941388270481       -57.604809993729646        448.43753463429226     
 
 qh_out =   -57.604809993729646     
 qe_out =    448.43753463429226     
 HFX(I,J) =   -57.6048088    
 LH(I,J) =    448.437531    
 
 
 avkdn,kup,ldown,lup,tsurf
   527.26690673828125        52.726691459517042        454.98962816610208        504.75769506058128        34.405019384586524     
 qn1,qf,qs,qh,qe
   424.77214838428500        6.9531247772410464E-310   35.933650092762257       -216.32578035901275        605.16427865053549     
 
 qh_out =   -216.32578035901275     
 qe_out =    605.16427865053549     
 HFX(I,J) =   -216.325775    
 LH(I,J) =    605.164307    
 
 
 avkdn,kup,ldown,lup,tsurf
   496.26126098632812        23.010362786741862        459.29036481437515        497.15044163312638        33.024786254790214     
 qn1,qf,qs,qh,qe
   435.39083250492007        6.9531247772410464E-310   37.084007988020716        355.44757919483050        42.859245322068865     
 
 qh_out =    355.44757919483050     
 qe_out =    42.859245322068865     
 HFX(I,J) =    355.447571    
 LH(I,J) =    42.8592453    
 
 
 avkdn,kup,ldown,lup,tsurf
   503.64541625976562        19.520746123593220        458.27882339996893        503.01600342617706        33.931670048570865     
 qn1,qf,qs,qh,qe
   439.38747879970947        6.9531247772410464E-310   37.516977136904003        319.74588929559928        82.124612367206169     
 
 qh_out =    319.74588929559928     
 qe_out =    82.124612367206169     
 HFX(I,J) =    319.745880    
 LH(I,J) =    82.1246109    
 
 
 avkdn,kup,ldown,lup,tsurf
   511.62677001953125        13.077242187933145        458.41641615092800        506.90942095645227        34.493572405021879     
 qn1,qf,qs,qh,qe
   450.05652999937104        6.9531247772410464E-310   38.672791753217986        284.74879724342389        126.63494100272915     
 
 qh_out =    284.74879724342389     
 qe_out =    126.63494100272915     
 HFX(I,J) =    284.748810    
 LH(I,J) =    126.634941    
 
 
 avkdn,kup,ldown,lup,tsurf
   516.99206542968750        45.441639206771711        458.61125478653918        503.87727358731900        34.198626239769311     
 qn1,qf,qs,qh,qe
   426.28444444764278        6.9531247772410464E-310   36.097483538683775       -83.596527206561632        473.78348811552064     
 
 qh_out =   -83.596527206561632     
 qe_out =    473.78348811552064     
 HFX(I,J) =   -83.5965271    
 LH(I,J) =    473.783478    
 
 
 avkdn,kup,ldown,lup,tsurf
   525.30285644531250        52.530286427293504        457.19501897975897        505.68938648716323        34.535971169286370     
 qn1,qf,qs,qh,qe
   424.27820251061473        6.9531247772410464E-310   35.880139288983941       -204.74007133685461        593.13813455848538     
 
 qh_out =   -204.74007133685461     
 qe_out =    593.13813455848538     
 HFX(I,J) =   -204.740067    
 LH(I,J) =    593.138123    
 
 
 avkdn,kup,ldown,lup,tsurf
   494.66067504882812        5.4185480041607388        459.16214873781695        498.88855831374684        33.208782919767764     
 qn1,qf,qs,qh,qe
   449.51567771656391        6.9531247772410464E-310   38.614197534390605        392.61984452949582        18.281635652677501     
 
 qh_out =    392.61984452949582     
 qe_out =    18.281635652677501     
 HFX(I,J) =    392.619843    
 LH(I,J) =    18.2816353    
 
 
 avkdn,kup,ldown,lup,tsurf
   502.05813598632812        6.5830486062115607        458.73287786760102        504.64663590589635        34.106083612707010     
 qn1,qf,qs,qh,qe
   449.56136345631376        6.9531247772410464E-310   38.619149803486557        368.61282861058629        42.329385042240894     
 
 qh_out =    368.61282861058629     
 qe_out =    42.329385042240894     
 HFX(I,J) =    368.612823    
 LH(I,J) =    42.3293839    
 
 
 avkdn,kup,ldown,lup,tsurf
   506.85122680664062        40.072736799455861        458.50515639770146        504.30537623691248        34.239608648389115     
 qn1,qf,qs,qh,qe
   420.97823400897710        6.9531247772410464E-310   35.522641365420938       -34.551835286135258        420.00742792969140     
 
 qh_out =   -34.551835286135258     
 qe_out =    420.00742792969140     
 HFX(I,J) =   -34.5518341    
 LH(I,J) =    420.007416    
 
 
 avkdn,kup,ldown,lup,tsurf
   514.84271240234375        51.484272007409800        458.34193659900302        503.89352841260256        34.240294418747908     
 qn1,qf,qs,qh,qe
   417.80684858133441        6.9531247772410464E-310   35.179075936198579       -170.56954701665541        553.19731966179120     
 
 qh_out =   -170.56954701665541     
 qe_out =    553.19731966179120     
 HFX(I,J) =   -170.569550    
 LH(I,J) =    553.197327    
 
 
 avkdn,kup,ldown,lup,tsurf
   522.96154785156250        52.296155564429682        458.14624373715634        505.01439115040006        34.420789428063415     
 qn1,qf,qs,qh,qe
   423.79724487388904        6.9531247772410464E-310   35.828035544228918       -181.94026273384276        569.90947206350290     
 
 qh_out =   -181.94026273384276     
 qe_out =    569.90947206350290     
 HFX(I,J) =   -181.940262    
 LH(I,J) =    569.909485    
Timing for main: time 2010-09-01_00:20:00 on domain   1:    0.07265 elapsed seconds
Timing for Writing wrfout_d01_2010-09-01_00:20:00 for domain        1:    0.01029 elapsed seconds
 year =         2010 day =          244 hour =            0 minute =           20
 
 
 avkdn,kup,ldown,lup,tsurf
   502.26062011718750        22.785053242341966        458.49141753834647        497.50166458004821        33.095738952104057     
 qn1,qf,qs,qh,qe
   440.46529835866238        6.9531247772410464E-310   37.633740524140137        377.20425069184785        25.627307142674383     
 
 qh_out =    377.20425069184785     
 qe_out =    25.627307142674383     
 HFX(I,J) =    377.204254    
 LH(I,J) =    25.6273079    
 
 
 avkdn,kup,ldown,lup,tsurf
   508.46514892578125        23.352295094203065        465.13752564081420        506.51462748825628        34.471134447621409     
 qn1,qf,qs,qh,qe
   443.73575425098147        6.9531247772410464E-310   37.988040847381654        245.08397368763343        160.66373971596639     
 
 qh_out =    245.08397368763343     
 qe_out =    160.66373971596639     
 HFX(I,J) =    245.083969    
 LH(I,J) =    160.663742    
 
 
 avkdn,kup,ldown,lup,tsurf
   514.08087158203125        37.621713946906631        462.27211490487764        503.01246823421855        34.000670221330068     
 qn1,qf,qs,qh,qe
   435.71884045044180        6.9531247772410464E-310   37.119543125101856        91.137491837070115        307.46180548826982     
 
 qh_out =    91.137491837070115     
 qe_out =    307.46180548826982     
 HFX(I,J) =    91.1374893    
 LH(I,J) =    307.461792    
 
 
 avkdn,kup,ldown,lup,tsurf
   522.82281494140625        45.481603560584055        458.62014163276137        499.94820547882813        33.572688328497037     
 qn1,qf,qs,qh,qe
   436.01309406341653        6.9531247772410464E-310   37.151417202050290       0.64301287639972315        398.21866398496650     
 
 qh_out =   0.64301287639972315     
 qe_out =    398.21866398496650     
 HFX(I,J) =   0.643012881    
 LH(I,J) =    398.218658    
 
 
 avkdn,kup,ldown,lup,tsurf
   530.67816162109375        52.201715177972460        456.71518743536677        505.08717180476560        34.438765593015006     
 qn1,qf,qs,qh,qe
   430.10446063687596        6.9531247772410464E-310   36.511317208936568       -178.43138953807011        572.02453296600947     
 
 qh_out =   -178.43138953807011     
 qe_out =    572.02453296600947     
 HFX(I,J) =   -178.431396    
 LH(I,J) =    572.024536    
 
 
 avkdn,kup,ldown,lup,tsurf
   499.89370727539062        14.352785387835880        458.88776294539855        497.73103362125488        33.084631879088889     
 qn1,qf,qs,qh,qe
   446.69764697025801        6.9531247772410464E-310   38.308912305499881        329.37348205019055        79.015252614567544     
 
 qh_out =    329.37348205019055     
 qe_out =    79.015252614567544     
 HFX(I,J) =    329.373474    
 LH(I,J) =    79.0152512    
 
 
 avkdn,kup,ldown,lup,tsurf
   506.90621948242188        12.529210762225421        460.71033392456661        502.90130056408884        33.870850571472680     
 qn1,qf,qs,qh,qe
   452.18598271655230        6.9531247772410464E-310   38.903479802915840        351.12473336117586        62.157769552460614     
 
 qh_out =    351.12473336117586     
 qe_out =    62.157769552460614     
 HFX(I,J) =    351.124725    
 LH(I,J) =    62.1577682    
 
 
 avkdn,kup,ldown,lup,tsurf
   515.19018554687500        31.876610431943810        460.10497614837095        502.46637860593660        33.899293938609418     
 qn1,qf,qs,qh,qe
   440.95216312006426        6.9531247772410464E-310   37.686484680059067        244.97112398268897        158.29455445731622     
 
 qh_out =    244.97112398268897     
 qe_out =    158.29455445731622     
 HFX(I,J) =    244.971130    
 LH(I,J) =    158.294556    
 
 
 avkdn,kup,ldown,lup,tsurf
   520.87750244140625        46.465579992153351        457.27664532913280        500.84225742477213        33.729483177136537     
 qn1,qf,qs,qh,qe
   430.84629406989899        6.9531247772410464E-310   36.591681942686506       -40.819242012929010        435.07385414014146     
 
 qh_out =   -40.819242012929010     
 qe_out =    435.07385414014146     
 HFX(I,J) =   -40.8192406    
 LH(I,J) =    435.073853    
 
 
 avkdn,kup,ldown,lup,tsurf
   528.98278808593750        52.352536296940677        457.10881694672543        504.24996522852354        34.303998227170375     
 qn1,qf,qs,qh,qe
   429.48907513819489        6.9531247772410464E-310   36.444649450235879       -165.84740937105477        558.89183505901383     
 
 qh_out =   -165.84740937105477     
 qe_out =    558.89183505901383     
 HFX(I,J) =   -165.847412    
 LH(I,J) =    558.891846    
 
 
 avkdn,kup,ldown,lup,tsurf
   497.92929077148438        32.491239986187935        459.34213377503755        496.57717177553207        32.976109052628949     
 qn1,qf,qs,qh,qe
   428.20300275510647        6.9531247772410464E-310   36.305325608088332        219.02279323716877        172.87488390984936     
 
 qh_out =    219.02279323716877     
 qe_out =    172.87488390984936     
 HFX(I,J) =    219.022797    
 LH(I,J) =    172.874878    
 
 
 avkdn,kup,ldown,lup,tsurf
   505.27542114257812        23.432820269875482        460.05099380204899        502.48552311573928        33.871664010136818     
 qn1,qf,qs,qh,qe
   439.40806964857302        6.9531247772410464E-310   37.519208179100666        331.89432575371893        69.994535715753457     
 
 qh_out =    331.89432575371893     
 qe_out =    69.994535715753457     
 HFX(I,J) =    331.894318    
 LH(I,J) =    69.9945374    
 
 
 avkdn,kup,ldown,lup,tsurf
   512.85772705078125        47.637181577394344        459.25786564769857        501.84880605237129        33.906168331977128     
 qn1,qf,qs,qh,qe
   422.62958192562303        6.9531247772410464E-310   35.701537873004334        280.21094673265429        106.71709731996441     
 
 qh_out =    280.21094673265429     
 qe_out =    106.71709731996441     
 HFX(I,J) =    280.210938    
 LH(I,J) =    106.717094    
 
 
 avkdn,kup,ldown,lup,tsurf
   518.99237060546875        48.235335742574833        458.60791096737802        502.51759288330442        33.999696127766690     
 qn1,qf,qs,qh,qe
   426.84740376208390        6.9531247772410464E-310   36.158471308204241       -60.727323464672679        451.41625591855234     
 
 qh_out =   -60.727323464672679     
 qe_out =    451.41625591855234     
 HFX(I,J) =   -60.7273216    
 LH(I,J) =    451.416260    
 
 
 avkdn,kup,ldown,lup,tsurf
   527.26690673828125        52.726691459517042        455.01185188430679        504.74675374137064        34.403096718232973     
 qn1,qf,qs,qh,qe
   424.80531342170036        6.9531247772410464E-310   35.937242971869125       -215.79483965945622        604.66291010928751     
 
 qh_out =   -215.79483965945622     
 qe_out =    604.66291010928751     
 HFX(I,J) =   -215.794846    
 LH(I,J) =    604.662903    
 
 
 avkdn,kup,ldown,lup,tsurf
   496.26126098632812        23.010362786741862        459.50606653105444        497.36614335231673        33.057913911822624     
 qn1,qf,qs,qh,qe
   435.39083250492007        6.9531247772410464E-310   37.084007988020716        355.17336418992636        43.133460326973008     
 
 qh_out =    355.17336418992636     
 qe_out =    43.133460326973008     
 HFX(I,J) =    355.173370    
 LH(I,J) =    43.1334610    
 
 
 avkdn,kup,ldown,lup,tsurf
   503.64541625976562        19.520746123593220        458.25669248194748        503.36305226018874        33.986101125782852     
 qn1,qf,qs,qh,qe
   439.01829904793675        6.9531247772410464E-310   37.476982663669581        318.43478640814340        83.106529976123781     
 
 qh_out =    318.43478640814340     
 qe_out =    83.106529976123781     
 HFX(I,J) =    318.434784    
 LH(I,J) =    83.1065292    
 
 
 avkdn,kup,ldown,lup,tsurf
   511.62677001953125        13.077242187933145        458.51173394177067        507.35592808370245        34.562336106093717     
 qn1,qf,qs,qh,qe
   449.70534066364877        6.9531247772410464E-310   38.634746241007655        283.00698038337896        128.06361403926212     
 
 qh_out =    283.00698038337896     
 qe_out =    128.06361403926212     
 HFX(I,J) =    283.006989    
 LH(I,J) =    128.063614    
 
 
 avkdn,kup,ldown,lup,tsurf
   516.99206542968750        45.441639206771711        458.66194969153719        504.11842827819089        34.236613733382271     
 qn1,qf,qs,qh,qe
   426.09398466369294        6.9531247772410464E-310   36.076850394332020       -86.886577804146214        476.90371207350711     
 
 qh_out =   -86.886577804146214     
 qe_out =    476.90371207350711     
 HFX(I,J) =   -86.8865814    
 LH(I,J) =    476.903717    
 
 
 avkdn,kup,ldown,lup,tsurf
   525.30285644531250        52.530286427293504        457.15134819944768        505.62522342679307        34.526096170948392     
 qn1,qf,qs,qh,qe
   424.29869479067366        6.9531247772410464E-310   35.882359286023402       -204.17195691131275        592.58829241596300     
 
 qh_out =   -204.17195691131275     
 qe_out =    592.58829241596300     
 HFX(I,J) =   -204.171951    
 LH(I,J) =    592.588318    
 
 
 avkdn,kup,ldown,lup,tsurf
   494.66067504882812        5.4185480041607388        459.26145549686134        499.09002110837662        33.239926091481856     
 qn1,qf,qs,qh,qe
   449.41352167683971        6.9531247772410464E-310   38.603130630383475        392.44421033310897        18.366180713347255     
 
 qh_out =    392.44421033310897     
 qe_out =    18.366180713347255     
 HFX(I,J) =    392.444214    
 LH(I,J) =    18.3661804    
 
 
 avkdn,kup,ldown,lup,tsurf
   502.05813598632812        6.5830486062115607        458.76254398041402        504.75362906994656        34.122542652242075     
 qn1,qf,qs,qh,qe
   449.48403640612975        6.9531247772410464E-310   38.610772705961026        368.43027966405793        42.442984036110794     
 
 qh_out =    368.43027966405793     
 qe_out =    42.442984036110794     
 HFX(I,J) =    368.430267    
 LH(I,J) =    42.4429855    
 
 
 avkdn,kup,ldown,lup,tsurf
   506.85122680664062        40.072736799455861        458.48980292213463        504.33702472994139        34.244724220302032     
 qn1,qf,qs,qh,qe
   420.93123204095650        6.9531247772410464E-310   35.517549485666891       -35.169387199566188        420.58306975485579     
 
 qh_out =   -35.169387199566188     
 qe_out =    420.58306975485579     
 HFX(I,J) =   -35.1693878    
 LH(I,J) =    420.583069    
 
 
 avkdn,kup,ldown,lup,tsurf
   514.84271240234375        51.484272007409800        458.30456829787971        503.87061812345843        34.236932307843290     
 qn1,qf,qs,qh,qe
   417.79239056935529        6.9531247772410464E-310   35.177509651544170       -170.68674655488911        553.30162747270026     
 
 qh_out =   -170.68674655488911     
 qe_out =    553.30162747270026     
 HFX(I,J) =   -170.686752    
 LH(I,J) =    553.301636    
 
 
 avkdn,kup,ldown,lup,tsurf
   522.96154785156250        52.296155564429682        458.09326763485984        504.92552182491909        34.407036490156656     
 qn1,qf,qs,qh,qe
   423.83313809707352        6.9531247772410464E-310   35.831923976798507       -181.05445487692793        569.05566899720293     
 
 qh_out =   -181.05445487692793     
 qe_out =    569.05566899720293     
 HFX(I,J) =   -181.054459    
 LH(I,J) =    569.055664    
Timing for main: time 2010-09-01_00:25:00 on domain   1:    0.05866 elapsed seconds
Timing for Writing wrfout_d01_2010-09-01_00:25:00 for domain        1:    0.00798 elapsed seconds
 year =         2010 day =          244 hour =            0 minute =           25
 
 
 avkdn,kup,ldown,lup,tsurf
   502.26062011718750        22.785053242341966        458.57959250614215        497.71509921732456        33.129152384259761     
 qn1,qf,qs,qh,qe
   440.34003868721078        6.9531247772410464E-310   37.620170726500646        376.95226837134442        25.767599589365727     
 
 qh_out =    376.95226837134442     
 qe_out =    25.767599589365727     
 HFX(I,J) =    376.952271    
 LH(I,J) =    25.7675991    
 
 
 avkdn,kup,ldown,lup,tsurf
   508.46514892578125        23.352295094203065        465.19026471070487        506.80637807982123        34.516473820442322     
 qn1,qf,qs,qh,qe
   443.49674272943003        6.9531247772410464E-310   37.962147932100791        243.45287621032440        162.08171858700481     
 
 qh_out =    243.45287621032440     
 qe_out =    162.08171858700481     
 HFX(I,J) =    243.452881    
 LH(I,J) =    162.081726    
 
 
 avkdn,kup,ldown,lup,tsurf
   514.08087158203125        37.621713946906631        462.30562059349467        503.28007757226328        34.042886698659125     
 qn1,qf,qs,qh,qe
   435.48473680225470        6.9531247772410464E-310   37.094181895231465        88.252810675561705        310.13774423146151     
 
 qh_out =    88.252810675561705     
 qe_out =    310.13774423146151     
 HFX(I,J) =    88.2528076    
 LH(I,J) =    310.137756    
 
 
 avkdn,kup,ldown,lup,tsurf
   522.82281494140625        45.481603560584055        458.66154279396034        500.11706767963955        33.599413636043252     
 qn1,qf,qs,qh,qe
   435.88563302154841        6.9531247772410464E-310   37.137608923061123       -1.4181990270453184        400.16622312553261     
 
 qh_out =   -1.4181990270453184     
 qe_out =    400.16622312553261     
 HFX(I,J) =   -1.41819906    
 LH(I,J) =    400.166229    
 
 
 avkdn,kup,ldown,lup,tsurf
   530.67816162109375        52.201715177972460        456.78186210155388        505.12394328428843        34.444100703543519     
 qn1,qf,qs,qh,qe
   430.13436382344327        6.9531247772410464E-310   36.514556720858245       -178.15013969733303        571.76994679991810     
 
 qh_out =   -178.15013969733303     
 qe_out =    571.76994679991810     
 HFX(I,J) =   -178.150146    
 LH(I,J) =    571.769958    
 
 
 avkdn,kup,ldown,lup,tsurf
   499.89370727539062        14.352785387835880        459.11266424592480        497.95593492078626        33.119151905140257     
 qn1,qf,qs,qh,qe
   446.69764697025801        6.9531247772410464E-310   38.308912305499881        328.66658522595151        79.722149438806653     
 
 qh_out =    328.66658522595151     
 qe_out =    79.722149438806653     
 HFX(I,J) =    328.666595    
 LH(I,J) =    79.7221527    
 
 
 avkdn,kup,ldown,lup,tsurf
   506.90621948242188        12.529210762225421        460.45796450291249        502.97442149696082        33.883146272480111     
 qn1,qf,qs,qh,qe
   451.86049237750939        6.9531247772410464E-310   38.868218351157410        350.24062999947159        62.751644026880385     
 
 qh_out =    350.24062999947159     
 qe_out =    62.751644026880385     
 HFX(I,J) =    350.240631    
 LH(I,J) =    62.7516441    
 
 
 avkdn,kup,ldown,lup,tsurf
   515.19018554687500        31.876610431943810        460.06520004601055        502.63124949444006        33.925591763703082     
 qn1,qf,qs,qh,qe
   440.74751612958948        6.9531247772410464E-310   37.664314589310742        243.70651151492893        159.37669002534980     
 
 qh_out =    243.70651151492893     
 qe_out =    159.37669002534980     
 HFX(I,J) =    243.706512    
 LH(I,J) =    159.376694    
 
 
 avkdn,kup,ldown,lup,tsurf
   520.87750244140625        46.465579992153351        457.19049691202736        500.93032773147081        33.744200737877307     
 qn1,qf,qs,qh,qe
   430.67207534752902        6.9531247772410464E-310   36.572808247796054       -43.263723138339287        437.36299023807226     
 
 qh_out =   -43.263723138339287     
 qe_out =    437.36299023807226     
 HFX(I,J) =   -43.2637215    
 LH(I,J) =    437.362976    
 
 
 avkdn,kup,ldown,lup,tsurf
   528.98278808593750        52.352536296940677        457.14353066467021        504.29644037570171        34.311141254782797     
 qn1,qf,qs,qh,qe
   429.47731370796271        6.9531247772410464E-310   36.443375295311725       -166.19414890332860        559.22808731597956     
 
 qh_out =   -166.19414890332860     
 qe_out =    559.22808731597956     
 HFX(I,J) =   -166.194153    
 LH(I,J) =    559.228088    
 
 
 avkdn,kup,ldown,lup,tsurf
   497.92929077148438        32.491239986187935        459.56252787484783        496.79756587303319        33.009973380547393     
 qn1,qf,qs,qh,qe
   428.20300275510641        6.9531247772410464E-310   36.305325608088324        217.33773743482283        174.55993971219524     
 
 qh_out =    217.33773743482283     
 qe_out =    174.55993971219524     
 HFX(I,J) =    217.337738    
 LH(I,J) =    174.559937    
 
 
 avkdn,kup,ldown,lup,tsurf
   505.27542114257812        23.432820269875482        459.93801336788465        502.73723369886903        33.911861300754602     
 qn1,qf,qs,qh,qe
   439.04337863150255        6.9531247772410464E-310   37.479699985074163        330.73814399818843        70.825534648239966     
 
 qh_out =    330.73814399818843     
 qe_out =    70.825534648239966     
 HFX(I,J) =    330.738159    
 LH(I,J) =    70.8255310    
 
 
 avkdn,kup,ldown,lup,tsurf
   512.85772705078125        47.637181577394344        459.12161908658601        502.02110503779375        33.934918488639347     
 qn1,qf,qs,qh,qe
   422.32103638233167        6.9531247772410464E-310   35.668112106112112        278.90017565756608        107.75274861865348     
 
 qh_out =    278.90017565756608     
 qe_out =    107.75274861865348     
 HFX(I,J) =    278.900177    
 LH(I,J) =    107.752747    
 
 
 avkdn,kup,ldown,lup,tsurf
   518.99237060546875        48.235335742574833        458.61430893511573        502.53209250638866        34.001963938805332     
 qn1,qf,qs,qh,qe
   426.83930210706995        6.9531247772410464E-310   36.157593628852368       -60.857362420540710        451.53907089875833     
 
 qh_out =   -60.857362420540710     
 qe_out =    451.53907089875833     
 HFX(I,J) =   -60.8573608    
 LH(I,J) =    451.539062    
 
 
 avkdn,kup,ldown,lup,tsurf
   527.26690673828125        52.726691459517042        455.03836229159469        504.74879880772460        34.403211504197429     
 qn1,qf,qs,qh,qe
   424.82977876263431        6.9531247772410464E-310   35.939893383843135       -215.44297629287098        604.33286167166216     
 
 qh_out =   -215.44297629287098     
 qe_out =    604.33286167166216     
 HFX(I,J) =   -215.442978    
 LH(I,J) =    604.332886    
 
 
 avkdn,kup,ldown,lup,tsurf
   496.26126098632812        23.010362786741862        459.74821394236733        497.60829076644859        33.095090316400700     
 qn1,qf,qs,qh,qe
   435.39083250492007        6.9531247772410464E-310   37.084007988020716        354.85622744133241        43.450597075566961     
 
 qh_out =    354.85622744133241     
 qe_out =    43.450597075566961     
 HFX(I,J) =    354.856232    
 LH(I,J) =    43.4505959    
 
 
 avkdn,kup,ldown,lup,tsurf
   503.64541625976562        19.520746123593220        458.24571448958926        503.74142887399296        34.045355484000083     
 qn1,qf,qs,qh,qe
   438.62894444190340        6.9531247772410464E-310   37.434802581216722        317.03938597692331        84.154755883763329     
 
 qh_out =    317.03938597692331     
 qe_out =    84.154755883763329     
 HFX(I,J) =    317.039398    
 LH(I,J) =    84.1547546    
 
 
 avkdn,kup,ldown,lup,tsurf
   511.62677001953125        13.077242187933145        458.49889229573262        507.56974144038884        34.595443864029200     
 qn1,qf,qs,qh,qe
   449.47868566083196        6.9531247772410464E-310   38.610191948493430        281.95232706428351        128.91616664805503     
 
 qh_out =    281.95232706428351     
 qe_out =    128.91616664805503     
 HFX(I,J) =    281.952332    
 LH(I,J) =    128.916168    
 
 
 avkdn,kup,ldown,lup,tsurf
   516.99206542968750        45.441639206771711        458.54058764101012        503.99898890615987        34.218495588844796     
 qn1,qf,qs,qh,qe
   426.09206198059098        6.9531247772410464E-310   36.076642103651636       -86.485996291394372        476.50141616833372     
 
 qh_out =   -86.485996291394372     
 qe_out =    476.50141616833372     
 HFX(I,J) =   -86.4860001    
 LH(I,J) =    476.501404    
 
 
 avkdn,kup,ldown,lup,tsurf
   525.30285644531250        52.530286427293504        457.10330367224662        505.54769772929342        34.514125714469685     
 qn1,qf,qs,qh,qe
   424.32817596097220        6.9531247772410464E-310   35.885553079520001       -203.41898865020664        591.86161153165881     
 
 qh_out =   -203.41898865020664     
 qe_out =    591.86161153165881     
 HFX(I,J) =   -203.418991    
 LH(I,J) =    591.861633    
 
 
 avkdn,kup,ldown,lup,tsurf
   494.66067504882812        5.4185480041607388        459.36107915662774        499.29155525748655        33.271070084281604     
 qn1,qf,qs,qh,qe
   449.31161118334421        6.9531247772410464E-310   38.592090327217072        392.26876002721201        18.450760828915129     
 
 qh_out =    392.26876002721201     
 qe_out =    18.450760828915129     
 HFX(I,J) =    392.268768    
 LH(I,J) =    18.4507599    
 
 
 avkdn,kup,ldown,lup,tsurf
   502.05813598632812        6.5830486062115607        458.79220884697912        504.86064081072226        34.139001920829443     
 qn1,qf,qs,qh,qe
   449.40668953297251        6.9531247772410464E-310   38.602393460946608        368.24759119872454        42.556704873301364     
 
 qh_out =    368.24759119872454     
 qe_out =    42.556704873301364     
 HFX(I,J) =    368.247589    
 LH(I,J) =    42.5567055    
 
 
 avkdn,kup,ldown,lup,tsurf
   506.85122680664062        40.072736799455861        458.47460620890303        504.36886295823263        34.249868552846699     
 qn1,qf,qs,qh,qe
   420.88419710000272        6.9531247772410464E-310   35.512454033845160       -35.788035059893730        421.15977812605132     
 
 qh_out =   -35.788035059893730     
 qe_out =    421.15977812605132     
 HFX(I,J) =   -35.7880363    
 LH(I,J) =    421.159790    
 
 
 avkdn,kup,ldown,lup,tsurf
   514.84271240234375        51.484272007409800        458.26319287728842        503.83527953984282        34.231616168375410     
 qn1,qf,qs,qh,qe
   417.78635373237961        6.9531247772410464E-310   35.176855660862060       -170.63225978909196        553.24175786060948     
 
 qh_out =   -170.63225978909196     
 qe_out =    553.24175786060948     
 HFX(I,J) =   -170.632263    
 LH(I,J) =    553.241760    
 
 
 avkdn,kup,ldown,lup,tsurf
   522.96154785156250        52.296155564429682        458.04021372385483        504.83612126902784        34.393197574735780     
 qn1,qf,qs,qh,qe
   423.86948474195975        6.9531247772410464E-310   35.835861530053194       -180.16053469010166        568.19415790200821     
 
 qh_out =   -180.16053469010166     
 qe_out =    568.19415790200821     
 HFX(I,J) =   -180.160538    
 LH(I,J) =    568.194153    
Timing for main: time 2010-09-01_00:30:00 on domain   1:    0.06675 elapsed seconds
Timing for Writing wrfout_d01_2010-09-01_00:30:00 for domain        1:    0.01434 elapsed seconds
 year =         2010 day =          244 hour =            0 minute =           30
 
 
 avkdn,kup,ldown,lup,tsurf
   599.15289306640625        27.180571245334875        458.66807727084131        505.32872060483328        34.328534284545512     
 qn1,qf,qs,qh,qe
   525.31165484293831        6.9531247772410464E-310   46.825429074786605        449.14817323346711        29.338052534684593     
 
 qh_out =    449.14817323346711     
 qe_out =    29.338052534684593     
 HFX(I,J) =    449.148163    
 LH(I,J) =    29.3380527    
 
 
 avkdn,kup,ldown,lup,tsurf
   604.49993896484375        27.762887955955666        465.24437324806138        514.42842996114609        35.699360227430148     
 qn1,qf,qs,qh,qe
   527.55299678649590        6.9531247772410464E-310   47.068242278509416        297.92441885104813        182.56033565693838     
 
 qh_out =    297.92441885104813     
 qe_out =    182.56033565693838     
 HFX(I,J) =    297.924408    
 LH(I,J) =    182.560333    
 
 
 avkdn,kup,ldown,lup,tsurf
   608.87176513671875        44.558746774273907        462.34023609579913        510.57670352923230        35.192182779210881     
 qn1,qf,qs,qh,qe
   516.07659058535751        6.9531247772410464E-310   45.824966508380697        121.62465278326897        348.62697129370781     
 
 qh_out =    121.62465278326897     
 qe_out =    348.62697129370781     
 HFX(I,J) =    121.624649    
 LH(I,J) =    348.626984    
 
 
 avkdn,kup,ldown,lup,tsurf
   616.99053955078125        53.673478506526955        458.70346914398630        507.16442710932756        34.720364473985754     
 qn1,qf,qs,qh,qe
   514.85604447255332        6.9531247772410464E-310   45.692736491631003        21.685256786054879        447.47805119486742     
 
 qh_out =    21.685256786054879     
 qe_out =    447.47805119486742     
 HFX(I,J) =    21.6852570    
 LH(I,J) =    447.478058    
 
 
 avkdn,kup,ldown,lup,tsurf
   624.13336181640625        61.394710283694145        456.84867032771746        511.90169950158099        35.518009992296712     
 qn1,qf,qs,qh,qe
   507.68562078581260        6.9531247772410464E-310   44.915943004746374       -160.62771286387715        623.39739064494336     
 
 qh_out =   -160.62771286387715     
 qe_out =    623.39739064494336     
 HFX(I,J) =   -160.627716    
 LH(I,J) =    623.397400    
 
 
 avkdn,kup,ldown,lup,tsurf
   596.22485351562500        17.118613899033029        459.33783510268290        505.66633099347155        34.324495203714569     
 qn1,qf,qs,qh,qe
   532.77773905622382        6.9531247772410464E-310   47.634255712517998        392.82165961758687        92.321823726118964     
 
 qh_out =    392.82165961758687     
 qe_out =    92.321823726118964     
 HFX(I,J) =    392.821655    
 LH(I,J) =    92.3218231    
 
 
 avkdn,kup,ldown,lup,tsurf
   602.25854492187500        14.886036021380971        460.46760187515298        510.64618967031714        35.071299101313734     
 qn1,qf,qs,qh,qe
   537.19385590615127        6.9531247772410464E-310   48.112665637358319        418.29590558495318        70.785284683839805     
 
 qh_out =    418.29590558495318     
 qe_out =    70.785284683839805     
 HFX(I,J) =    418.295898    
 LH(I,J) =    70.7852859    
 
 
 avkdn,kup,ldown,lup,tsurf
   610.04602050781250        37.745671184793594        460.06706399310860        509.93243007397098        35.072194297919751     
 qn1,qf,qs,qh,qe
   522.43497277764152        6.9531247772410464E-310   46.513789104845806        297.50156338819102        178.41962028460472     
 
 qh_out =    297.50156338819102     
 qe_out =    178.41962028460472     
 HFX(I,J) =    297.501556    
 LH(I,J) =    178.419617    
 
 
 avkdn,kup,ldown,lup,tsurf
   614.55346679687500        54.822070711563484        457.26437290504140        507.92133406949688        34.855079515500471     
 qn1,qf,qs,qh,qe
   509.07441707788536        6.9531247772410464E-310   45.066395253752901       -20.735337427321667        484.74335925145408     
 
 qh_out =   -20.735337427321667     
 qe_out =    484.74335925145408     
 HFX(I,J) =   -20.7353382    
 LH(I,J) =    484.743347    
 
 
 avkdn,kup,ldown,lup,tsurf
   621.94744873046875        61.553092308103224        457.17832641789198        511.04459023273921        35.382276000577150     
 qn1,qf,qs,qh,qe
   506.52806156200165        6.9531247772410464E-310   44.790539530407671       -149.80578430375419        611.54330633534812     
 
 qh_out =   -149.80578430375419     
 qe_out =    611.54330633534812     
 HFX(I,J) =   -149.805786    
 LH(I,J) =    611.543335    
 
 
 avkdn,kup,ldown,lup,tsurf
   593.58807373046875        38.733235650053025        459.78244017292388        504.17082091234477        34.178354090894643     
 qn1,qf,qs,qh,qe
   510.46644630443291        6.9531247772410464E-310   45.217198698689543        262.31890942844649        202.93033817729687     
 
 qh_out =    262.31890942844649     
 qe_out =    202.93033817729687     
 HFX(I,J) =    262.318909    
 LH(I,J) =    202.930344    
 
 
 avkdn,kup,ldown,lup,tsurf
   600.10266113281250        27.830559756895745        459.90295699649681        510.00619295189620        35.048487591113172     
 qn1,qf,qs,qh,qe
   522.16886332270224        6.9531247772410464E-310   46.484960942987691        396.63213735877230        79.051765020942227     
 
 qh_out =    396.63213735877230     
 qe_out =    79.051765020942227     
 HFX(I,J) =    396.632141    
 LH(I,J) =    79.0517654    
 
 
 avkdn,kup,ldown,lup,tsurf
   606.98797607421875        56.380541632513179        459.00129127725290        508.83519762885692        35.022012515034177     
 qn1,qf,qs,qh,qe
   500.77350271216619        6.9531247772410464E-310   44.167129216153874        337.24706512854550        119.35930836746680     
 
 qh_out =    337.24706512854550     
 qe_out =    119.35930836746680     
 HFX(I,J) =    337.247070    
 LH(I,J) =    119.359306    
 
 
 avkdn,kup,ldown,lup,tsurf
   612.08551025390625        56.887445292921797        458.62979842730761        509.34848898634414        35.084857737320220     
 qn1,qf,qs,qh,qe
   504.47943005713137        6.9531247772410464E-310   44.568608052642702       -38.292583746575247        498.20340575106388     
 
 qh_out =   -38.292583746575247     
 qe_out =    498.20340575106388     
 HFX(I,J) =   -38.2925835    
 LH(I,J) =    498.203400    
 
 
 avkdn,kup,ldown,lup,tsurf
   619.69238281250000        61.969239204663609        455.06914657790196        511.41864367394521        35.461501727282609     
 qn1,qf,qs,qh,qe
   501.37364651179314        6.9531247772410464E-310   44.232145846899527       -199.33094393411398        656.47244459900764     
 
 qh_out =   -199.33094393411398     
 qe_out =    656.47244459900764     
 HFX(I,J) =   -199.330948    
 LH(I,J) =    656.472473    
 
 
 avkdn,kup,ldown,lup,tsurf
   591.45855712890625        27.424417424421854        459.96445107667915        505.08718714999588        34.271002317577619     
 qn1,qf,qs,qh,qe
   518.91141587134246        6.9531247772410464E-310   46.132071426209777        422.87807847463569        49.901265970496993     
 
 qh_out =    422.87807847463569     
 qe_out =    49.901265970496993     
 HFX(I,J) =    422.878082    
 LH(I,J) =    49.9012642    
 
 
 avkdn,kup,ldown,lup,tsurf
   597.93359375000000        23.175252877396069        458.08151197221542        510.96022430909591        35.168093446811810     
 qn1,qf,qs,qh,qe
   521.87961611915318        6.9531247772410464E-310   46.453625374600200        382.06483473628435        93.361156008268637     
 
 qh_out =    382.06483473628435     
 qe_out =    93.361156008268637     
 HFX(I,J) =    382.064850    
 LH(I,J) =    93.3611526    
 
 
 avkdn,kup,ldown,lup,tsurf
   605.19018554687500        15.468734417189621        458.42318875924593        514.84572493825590        35.713926578612885     
 qn1,qf,qs,qh,qe
   533.29892259661551        6.9531247772410464E-310   47.690717817123712        343.87990400494186        141.72830077454995     
 
 qh_out =    343.87990400494186     
 qe_out =    141.72830077454995     
 HFX(I,J) =    343.879913    
 LH(I,J) =    141.728302    
 
 
 avkdn,kup,ldown,lup,tsurf
   609.40386962890625        53.564285850057296        458.47464363603905        510.72811658818944        35.283268631095673     
 qn1,qf,qs,qh,qe
   503.58615135417762        6.9531247772410464E-310   44.471835562830940       -64.176588585500156        523.29090437684681     
 
 qh_out =   -64.176588585500156     
 qe_out =    523.29090437684681     
 HFX(I,J) =   -64.1765900    
 LH(I,J) =    523.290894    
 
 
 avkdn,kup,ldown,lup,tsurf
   617.13208007812500        61.713208927410960        457.05942570380847        512.09452208716698        35.552463721504012     
 qn1,qf,qs,qh,qe
   500.38377476735559        6.9531247772410464E-310   44.124909739654179       -187.06166502616065        643.32053005386206     
 
 qh_out =   -187.06166502616065     
 qe_out =    643.32053005386206     
 HFX(I,J) =   -187.061661    
 LH(I,J) =    643.320557    
 
 
 avkdn,kup,ldown,lup,tsurf
   589.39898681640625        6.4563181687186875        459.46126396363184        506.98939175684256        34.462447503528089     
 qn1,qf,qs,qh,qe
   535.41449714145836        6.9531247772410464E-310   47.919902722922366        466.52419225023141        20.970402168304545     
 
 qh_out =    466.52419225023141     
 qe_out =    20.970402168304545     
[...]
 qn1,qf,qs,qh,qe
   357.00688723792143        6.9531247772410464E-310   28.592411605010348        272.89527086296891        55.519204769942142     
 
 qh_out =    272.89527086296891     
 qe_out =    55.519204769942142     
 HFX(I,J) =    272.895264    
 LH(I,J) =    55.5192032    
 
 
 avkdn,kup,ldown,lup,tsurf
   409.43441772460938        25.333132884476566        462.92710950762063        499.77187036209273        33.457078754158943     
 qn1,qf,qs,qh,qe
   347.25651545493577        6.9531247772410464E-310   27.536122797677208        164.66305468952106        155.05733796773748     
 
 qh_out =    164.66305468952106     
 qe_out =    155.05733796773748     
 HFX(I,J) =    164.663055    
 LH(I,J) =    155.057343    
 
 
 avkdn,kup,ldown,lup,tsurf
   416.03823852539062        37.113252082087605        458.50706087665674        500.74806463883891        33.705739107172441     
 qn1,qf,qs,qh,qe
   336.68396812222329        6.9531247772410464E-310   26.390763316168119       -173.23162178409029        483.52482659014544     
 
 qh_out =   -173.23162178409029     
 qe_out =    483.52482659014544     
 HFX(I,J) =   -173.231628    
 LH(I,J) =    483.524841    
 
 
 avkdn,kup,ldown,lup,tsurf
   425.64068603515625        42.124942374287869        458.46987973851549        501.19162276704446        33.803865612901170     
 qn1,qf,qs,qh,qe
   340.79397519724193        6.9531247772410464E-310   26.836013756551630       -246.72995404382038        560.68791548451065     
 
 qh_out =   -246.72995404382038     
 qe_out =    560.68791548451065     
 HFX(I,J) =   -246.729950    
 LH(I,J) =    560.687927    
 
 
 avkdn,kup,ldown,lup,tsurf
   391.68600463867188        25.558576713228028        460.76028365752416        490.05047208100524        31.920580332278057     
 qn1,qf,qs,qh,qe
   336.83723057055994        6.9531247772410464E-310   26.407366910976037        144.28965030304030        166.14021335654360     
 
 qh_out =    144.28965030304030     
 qe_out =    166.14021335654360     
 HFX(I,J) =    144.289658    
 LH(I,J) =    166.140213    
 
 
 avkdn,kup,ldown,lup,tsurf
   399.84793090820312        18.543480066903193        461.20715546535382        496.74212208380902        32.958774673575917     
 qn1,qf,qs,qh,qe
   345.76948251876468        6.9531247772410464E-310   27.375027775620644        253.96179140962633        64.432663333517709     
 
 qh_out =    253.96179140962633     
 qe_out =    64.432663333517709     
 HFX(I,J) =    253.961792    
 LH(I,J) =    64.4326630    
 
 
 avkdn,kup,ldown,lup,tsurf
   407.91265869140625        37.889278770437912        460.32645806103693        498.48582217285445        33.357578133052549     
 qn1,qf,qs,qh,qe
   331.86399513903996        6.9531247772410464E-310   25.868599392027740        199.07004255729268        106.92535318971954     
 
 qh_out =    199.07004255729268     
 qe_out =    106.92535318971954     
 HFX(I,J) =    199.070038    
 LH(I,J) =    106.925354    
 
 
 avkdn,kup,ldown,lup,tsurf
   414.99673461914062        38.569944300093624        458.13678259131393        499.42034914687343        33.507566543519204     
 qn1,qf,qs,qh,qe
   335.14326914847987        6.9531247772410464E-310   26.223856060630794       -165.39656018635407        474.31597327420315     
 
 qh_out =   -165.39656018635407     
 qe_out =    474.31597327420315     
 HFX(I,J) =   -165.396561    
 LH(I,J) =    474.315979    
 
 
 avkdn,kup,ldown,lup,tsurf
   424.34631347656250        42.434631979981532        458.23339168103507        500.38725185168880        33.679397892424390     
 qn1,qf,qs,qh,qe
   339.75782132592724        6.9531247772410464E-310   26.723764524202174       -244.62402474767248        557.65808154939759     
 
 qh_out =   -244.62402474767248     
 qe_out =    557.65808154939759     
 HFX(I,J) =   -244.624023    
 LH(I,J) =    557.658081    
 
 
 avkdn,kup,ldown,lup,tsurf
   389.80206298828125        18.074122623542564        457.81725412591874        487.55549438312215        31.500765046172802     
 qn1,qf,qs,qh,qe
   341.98970997512271        6.9531247772410464E-310   26.965552778721616        279.13839331649456        35.885763879906513     
 
 qh_out =    279.13839331649456     
 qe_out =    35.885763879906513     
 HFX(I,J) =    279.138397    
 LH(I,J) =    35.8857651    
 
 
 avkdn,kup,ldown,lup,tsurf
   398.65383911132812        15.451387292035383        456.95493468719576        494.96312717476371        32.669712969902847     
 qn1,qf,qs,qh,qe
   345.19424927152170        6.9531247772410464E-310   27.312710572609475        242.80214054389768        75.079398155014530     
 
 qh_out =    242.80214054389768     
 qe_out =    75.079398155014530     
 HFX(I,J) =    242.802139    
 LH(I,J) =    75.0793991    
 
 
 avkdn,kup,ldown,lup,tsurf
   407.46185302734375        10.414774297637281        457.22268001075537        499.71820791676424        33.379262949516153     
 qn1,qf,qs,qh,qe
   354.55155703960861        6.9531247772410464E-310   28.326419454027686        206.49144293211771        119.73369465346323     
 
 qh_out =    206.49144293211771     
 qe_out =    119.73369465346323     
 HFX(I,J) =    206.491440    
 LH(I,J) =    119.733696    
 
 
 avkdn,kup,ldown,lup,tsurf
   414.01608276367188        36.390441395094136        457.46211163443587        497.13409476211757        33.129099667964560     
 qn1,qf,qs,qh,qe
   337.95369131470909        6.9531247772410464E-310   26.528318110194455       -137.07969745139667        448.50507065591131     
 
 qh_out =   -137.07969745139667     
 qe_out =    448.50507065591131     
 HFX(I,J) =   -137.079697    
 LH(I,J) =    448.505066    
 
 
 avkdn,kup,ldown,lup,tsurf
   423.09503173828125        42.309503804288852        458.29333712118637        498.77303822605978        33.419250796160782     
 qn1,qf,qs,qh,qe
   340.30582682911898        6.9531247772410464E-310   26.783131787932597       -215.46296791404342        528.98566295522983     
 
 qh_out =   -215.46296791404342     
 qe_out =    528.98566295522983     
 HFX(I,J) =   -215.462967    
 LH(I,J) =    528.985657    
 
 
 avkdn,kup,ldown,lup,tsurf
   388.52847290039062        4.2559683588880812        456.11990101637804        486.86168038759359        31.325182981305723     
 qn1,qf,qs,qh,qe
   353.53068996814250        6.9531247772410464E-310   28.215824140066864        310.75246693110807        14.562398896967574     
 
 qh_out =    310.75246693110807     
 qe_out =    14.562398896967574     
 HFX(I,J) =    310.752472    
 LH(I,J) =    14.5623989    
 
 
 avkdn,kup,ldown,lup,tsurf
   397.85281372070312        5.2166954842710576        454.83002864273294        491.91040934101221        32.129121675864148     
 qn1,qf,qs,qh,qe
   355.55576781408382        6.9531247772410464E-310   28.435209762227977        291.82271134149005        35.297846710365782     
 
 qh_out =    291.82271134149005     
 qe_out =    35.297846710365782     
 HFX(I,J) =    291.822723    
 LH(I,J) =    35.2978477    
 
 
 avkdn,kup,ldown,lup,tsurf
   404.61257934570312        31.989531721218047        454.32075712256773        492.61636047344149        32.399729506447287     
 qn1,qf,qs,qh,qe
   334.32741210086340        6.9531247772410464E-310   26.135469203774029       -55.953425244053506        364.14536814114285     
 
 qh_out =   -55.953425244053506     
 qe_out =    364.14536814114285     
 HFX(I,J) =   -55.9534264    
 LH(I,J) =    364.145355    
 
 
 avkdn,kup,ldown,lup,tsurf
   413.39251708984375        41.339252324987228        454.82982164139810        493.65676321352549        32.619963074276257     
 qn1,qf,qs,qh,qe
   333.22632319272913        6.9531247772410464E-310   26.016185549228631       -186.20768910116652        493.41782674466702     
 
 qh_out =   -186.20768910116652     
 qe_out =    493.41782674466702     
 HFX(I,J) =   -186.207687    
 LH(I,J) =    493.417816    
 
 
 avkdn,kup,ldown,lup,tsurf
   422.29632568359375        42.229633197629937        455.92311237074807        495.99164793864975        32.989447359528128     
 qn1,qf,qs,qh,qe
   339.99815691806214        6.9531247772410464E-310   26.749800880404763       -199.88372510421470        513.13208114187205     
 
 qh_out =   -199.88372510421470     
 qe_out =    513.13208114187205     
 HFX(I,J) =   -199.883728    
 LH(I,J) =    513.132080    
Timing for main: time 2010-09-01_23:55:00 on domain   1:    0.06709 elapsed seconds
Timing for Writing wrfout_d01_2010-09-01_23:55:00 for domain        1:    0.00707 elapsed seconds
 year =         2010 day =          244 hour =           23 minute =           55
 
 
 avkdn,kup,ldown,lup,tsurf
   394.32739257812500        23.421672183797728        459.98372158046936        489.65616756223477        31.837381807365691     
 qn1,qf,qs,qh,qe
   341.23325531722048        6.9531247772410464E-310   26.883602608078704        295.45200959619831        18.897643112943484     
 
 qh_out =    295.45200959619831     
 qe_out =    18.897643112943484     
 HFX(I,J) =    295.451996    
 LH(I,J) =    18.8976440    
 
 
 avkdn,kup,ldown,lup,tsurf
   401.93887329101562        22.735834159434010        467.71352842743244        498.04977204373847        33.128514089221717     
 qn1,qf,qs,qh,qe
   348.86679754009288        6.9531247772410464E-310   27.710570359960037        196.53427260584243        124.62195457429040     
 
 qh_out =    196.53427260584243     
 qe_out =    124.62195457429040     
 HFX(I,J) =    196.534271    
 LH(I,J) =    124.621956    
 
 
 avkdn,kup,ldown,lup,tsurf
   408.51452636718750        32.268626711529841        463.40831784555888        498.33668411638644        33.250644224948530     
 qn1,qf,qs,qh,qe
   341.31756566347690        6.9531247772410464E-310   26.892737825525664        20.359167194539907        294.06566064341132     
 
 qh_out =    20.359167194539907     
 qe_out =    294.06566064341132     
 HFX(I,J) =    20.3591671    
 LH(I,J) =    294.065674    
 
 
 avkdn,kup,ldown,lup,tsurf
   417.40588378906250        37.776919044701600        457.71047139591764        499.30436981898691        33.477211603949307     
 qn1,qf,qs,qh,qe
   338.03501864287813        6.9531247772410464E-310   26.537126118285130       -151.41683639485137        462.91472891944437     
 
 qh_out =   -151.41683639485137     
 qe_out =    462.91472891944437     
 HFX(I,J) =   -151.416840    
 LH(I,J) =    462.914734    
 
 
 avkdn,kup,ldown,lup,tsurf
   426.82360839843750        42.190481081871056        460.42896254325689        501.09058544935129        33.770550077877367     
 qn1,qf,qs,qh,qe
   343.97150311934956        6.9531247772410464E-310   27.180246685739249       -209.31405532644010        526.10531176005043     
 
 qh_out =   -209.31405532644010     
 qe_out =    526.10531176005043     
 HFX(I,J) =   -209.314056    
 LH(I,J) =    526.105286    
 
 
 avkdn,kup,ldown,lup,tsurf
   393.34271240234375        17.224263791717679        461.90632457796886        491.99579761168877        32.166503512741336     
 qn1,qf,qs,qh,qe
   346.02897179347065        6.9531247772410464E-310   27.403139047083997        245.62883490470864        72.996997841677995     
 
 qh_out =    245.62883490470864     
 qe_out =    72.996997841677995     
 HFX(I,J) =    245.628830    
 LH(I,J) =    72.9970016    
 
 
 avkdn,kup,ldown,lup,tsurf
   400.90451049804688        14.892211762467070        464.35740847304601        498.08766998464677        33.105941876955434     
 qn1,qf,qs,qh,qe
   352.28198413940362        6.9531247772410464E-310   28.080547126446881        268.75682786662139        55.444609146335381     
 
 qh_out =    268.75682786662139     
 qe_out =    55.444609146335381     
 HFX(I,J) =    268.756836    
 LH(I,J) =    55.4446106    
 
 
 avkdn,kup,ldown,lup,tsurf
   409.43441772460938        27.511067479832985        462.98666626806624        499.69806955825868        33.445750199203218     
 qn1,qf,qs,qh,qe
   345.21193842327688        6.9531247772410464E-310   27.314626951446272        162.98238388948710        154.91492758234349     
 
 qh_out =    162.98238388948710     
 qe_out =    154.91492758234349     
 HFX(I,J) =    162.982391    
 LH(I,J) =    154.914932    
 
 
 avkdn,kup,ldown,lup,tsurf
   416.03823852539062        37.772133634310961        458.47183326342946        500.69300450095756        33.697488027763178     
 qn1,qf,qs,qh,qe
   336.04491909524052        6.9531247772410464E-310   26.321533005032549       -173.82942180551936        483.55280789572731     
 
 qh_out =   -173.82942180551936     
 qe_out =    483.55280789572731     
 HFX(I,J) =   -173.829422    
 LH(I,J) =    483.552795    
 
 
 avkdn,kup,ldown,lup,tsurf
   425.64068603515625        42.236053590114750        458.40920355663712        501.18587737819530        33.803476722858818     
 qn1,qf,qs,qh,qe
   340.62793319013139        6.9531247772410464E-310   26.818025872697447       -247.70074177295788        561.51064909039178     
 
 qh_out =   -247.70074177295788     
 qe_out =    561.51064909039178     
 HFX(I,J) =   -247.700745    
 LH(I,J) =    561.510620    
 
 
 avkdn,kup,ldown,lup,tsurf
   391.68600463867188        27.987594188318099        460.91091709344522        490.00678412168429        31.913384860206232     
 qn1,qf,qs,qh,qe
   334.60253448913363        6.9531247772410464E-310   26.165274834417225        143.10197935549297        165.33528029922343     
 
 qh_out =    143.10197935549297     
 qe_out =    165.33528029922343     
 HFX(I,J) =    143.101974    
 LH(I,J) =    165.335281    
 
 
 avkdn,kup,ldown,lup,tsurf
   399.84793090820312        23.470523157747344        461.31437530893766        496.51041633614733        32.922471901816181     
 qn1,qf,qs,qh,qe
   341.18136501895390        6.9531247772410464E-310   26.877981706718259        250.12188122161479        64.181502090620853     
 
 qh_out =    250.12188122161479     
 qe_out =    64.181502090620853     
 HFX(I,J) =    250.121887    
 LH(I,J) =    64.1815033    
 
 
 avkdn,kup,ldown,lup,tsurf
   407.91265869140625        39.256597815532842        460.41531794955614        498.51131683513933        33.361676045479285     
 qn1,qf,qs,qh,qe
   330.56004131806395        6.9531247772410464E-310   25.727337729346722        197.84319097936026        106.98951260935696     
 
 qh_out =    197.84319097936026     
 qe_out =    106.98951260935696     
 HFX(I,J) =    197.843185    
 LH(I,J) =    106.989510    
 
 
 avkdn,kup,ldown,lup,tsurf
   414.99673461914062        39.220041349654572        458.14183236431910        499.40551399842263        33.505434166942266     
 qn1,qf,qs,qh,qe
   334.51305702063735        6.9531247772410464E-310   26.155583075548378       -166.11984003773614        474.47731398282514     
 
 qh_out =   -166.11984003773614     
 qe_out =    474.47731398282514     
 HFX(I,J) =   -166.119843    
 LH(I,J) =    474.477325    
 
 
 avkdn,kup,ldown,lup,tsurf
   424.34631347656250        42.434631979981532        458.21989482880400        500.43339662123242        33.686919519861078     
 qn1,qf,qs,qh,qe
   339.69817970415249        6.9531247772410464E-310   26.717303348413637       -245.69401897982777        558.67489533556659     
 
 qh_out =   -245.69401897982777     
 qe_out =    558.67489533556659     
 HFX(I,J) =   -245.694016    
 LH(I,J) =    558.674866    
 
 
 avkdn,kup,ldown,lup,tsurf
   389.80206298828125        20.992556220712579        458.06470207941265        487.56946765694181        31.502534386409245     
 qn1,qf,qs,qh,qe
   339.30475106050778        6.9531247772410464E-310   26.674682221917848        276.78746813446440        35.842600704125516     
 
 qh_out =    276.78746813446440     
 qe_out =    35.842600704125516     
 HFX(I,J) =    276.787476    
 LH(I,J) =    35.8426018    
 
 
 avkdn,kup,ldown,lup,tsurf
   398.65383911132812        18.804252235287059        457.01191227214605        494.83923961759746        32.650503886416587     
 qn1,qf,qs,qh,qe
   342.02224946971666        6.9531247772410464E-310   26.969077259667152        240.03564514264730        75.017527067402199     
 
 qh_out =    240.03564514264730     
 qe_out =    75.017527067402199     
 HFX(I,J) =    240.035645    
 LH(I,J) =    75.0175247    
 
 
 avkdn,kup,ldown,lup,tsurf
   407.46185302734375        14.277260279537590        457.34894833497276        499.55682621997477        33.354043844833484     
 qn1,qf,qs,qh,qe
   350.97672107962296        6.9531247772410464E-310   27.939145549807762        203.64695968099556        119.39061584881964     
 
 qh_out =    203.64695968099556     
 qe_out =    119.39061584881964     
 HFX(I,J) =    203.646957    
 LH(I,J) =    119.390617    
 
 
 avkdn,kup,ldown,lup,tsurf
   414.01608276367188        37.062090344085341        457.52810236739265        497.17139071723477        33.134913802783373     
 qn1,qf,qs,qh,qe
   337.31073714606197        6.9531247772410464E-310   26.458664738242994       -137.89249871145933        448.74457111927831     
 
 qh_out =   -137.89249871145933     
 qe_out =    448.74457111927831     
 HFX(I,J) =   -137.892502    
 LH(I,J) =    448.744568    
 
 
 avkdn,kup,ldown,lup,tsurf
   423.09503173828125        42.309503804288852        458.35474846867697        498.87257721278564        33.434787439981505     
 qn1,qf,qs,qh,qe
   340.26769918988367        6.9531247772410464E-310   26.779001293620553       -216.41657419046606        529.90527208672916     
 
 qh_out =   -216.41657419046606     
 qe_out =    529.90527208672916     
 HFX(I,J) =   -216.416580    
 LH(I,J) =    529.905273    
 
 
 avkdn,kup,ldown,lup,tsurf
   388.52847290039062        8.2913286374056714        456.38618997670409        486.80514052175602        31.315760114506535     
 qn1,qf,qs,qh,qe
   349.81815850469042        6.9531247772410464E-310   27.813633242295097        307.46451152404160        14.540013738353698     
 
 qh_out =    307.46451152404160     
 qe_out =    14.540013738353698     
 HFX(I,J) =    307.464508    
 LH(I,J) =    14.5400133    
 
 
 avkdn,kup,ldown,lup,tsurf
   397.85281372070312        9.2477646010574688        454.95843319374973        491.78899401328846        32.109913279895132     
 qn1,qf,qs,qh,qe
   351.77451858059709        6.9531247772410464E-310   28.025574407951417        288.51668225548082        35.232261917164870     
 
 qh_out =    288.51668225548082     
 qe_out =    35.232261917164870     
 HFX(I,J) =    288.516693    
 LH(I,J) =    35.2322617    
 
 
 avkdn,kup,ldown,lup,tsurf
   404.61257934570312        33.158550373046978        454.41094197640223        492.68358544948313        32.410432882835835     
 qn1,qf,qs,qh,qe
   333.18135332344923        6.9531247772410464E-310   26.011312839021237       -57.597845954122590        364.76788643855059     
 
 qh_out =   -57.597845954122590     
 qe_out =    364.76788643855059     
 HFX(I,J) =   -57.5978470    
 LH(I,J) =    364.767883    
 
 
 avkdn,kup,ldown,lup,tsurf
   413.39251708984375        41.339252324987228        454.89234611055832        493.74958026089894        32.634521796548711     
 qn1,qf,qs,qh,qe
   333.19603061451585        6.9531247772410464E-310   26.012903853206630       -187.00105941033121        494.18418617164048     
 
 qh_out =   -187.00105941033121     
 qe_out =    494.18418617164048     
 HFX(I,J) =   -187.001053    
 LH(I,J) =    494.184174    
 
 
 avkdn,kup,ldown,lup,tsurf
   422.29632568359375        42.229633197629937        455.98964352471847        496.09478969816058        33.005590767967362     
 qn1,qf,qs,qh,qe
   339.96154631252176        6.9531247772410464E-310   26.745834731412124       -200.81738371474495        514.03309529585454     
 
 qh_out =   -200.81738371474495     
 qe_out =    514.03309529585454     
 HFX(I,J) =   -200.817383    
 LH(I,J) =    514.033081    
Timing for main: time 2010-09-02_00:00:00 on domain   1:    0.06538 elapsed seconds
Timing for Writing wrfout_d01_2010-09-02_00:00:00 for domain        1:    0.00777 elapsed seconds
d01 2010-09-02_00:00:00 wrf: SUCCESS COMPLETE WRF
