--- WARNING: traj_opt is zero, but num_traj is not zero; setting num_traj to zero.
--- NOTE: sst_update is 0, setting io_form_auxinput4 = 0 and auxinput4_interval = 0 for all domains
--- NOTE: grid_fdda is 0 for domain      1, setting gfdda interval and ending time to 0 for that domain.
--- NOTE: both grid_sfdda and pxlsm_soil_nudge are 0 for domain      1, setting sgfdda interval and ending time to 0 for that domain.
--- NOTE: obs_nudge_opt is 0 for domain      1, setting obs nudging interval and ending time to 0 for that domain.
--- NOTE: bl_pbl_physics /= 4, implies mfshconv must be 0, resetting
Need MYNN PBL for icloud_bl = 1, resetting to 0
--- NOTE: RRTMG radiation is not used, setting:  o3input=0 to avoid data pre-processing
*************************************
Configuring physics suite 'conus'

         mp_physics:      8
         cu_physics:      6
      ra_lw_physics:      4
      ra_sw_physics:      4
     bl_pbl_physics:      2
  sf_sfclay_physics:      2
 sf_surface_physics:      9*

(* = option overrides suite setting)
*************************************
--- NOTE: RRTMG radiation is in use, setting:  levsiz=59, alevsiz=12, no_src_types=6
--- NOTE: num_soil_layers has been set to      4
WRF V3.9.1.1 MODEL
DYNAMICS OPTION: Eulerian Mass Coordinate
   alloc_space_field: domain            1 ,               5885784  bytes allocated
  med_initialdata_input: calling input_input
Timing for processing wrfinput file (stream 0) for domain        1:    0.01828 elapsed seconds
Max map factor in domain 1 =  1.00. Scale the dt in the model accordingly.
INPUT LandUse = "MODIFIED_IGBP_MODIS_NOAH"
 LANDUSE TYPE = "MODIFIED_IGBP_MODIS_NOAH" FOUND          33  CATEGORIES           2  SEASONS WATER CATEGORY =           17  SNOW CATEGORY =           15
ThompMP: read qr_acr_qg.dat stead of computing
ThompMP: read qr_acr_qs.dat instead of computing
ThompMP: read freezeH2O.dat stead of computing
Timing for Writing wrfout_d01_2010-09-01_00:00:00 for domain        1:    0.19395 elapsed seconds
Timing for processing lateral boundary for domain        1:    0.00547 elapsed seconds
 Tile Strategy is not specified. Assuming 1D-Y
WRF TILE   1 IS      1 IE      6 JS      1 JE      6
WRF NUMBER OF TILES =   1
 year =         2010 day =          244 hour =            0 minute =            0
 Calling SUEWS_cal_RoughnessParameters...
 Calling NARP_cal_SunPosition...
 Calling SUEWS_cal_DailyState...
 Calling LUMPS_cal_AtmMoist...
 Calling SUEWS_update_SoilMoist...
 Calling NARP...
 Calling AnthropogenicEmissions...
 Calling OHM...
 Calling MeltHeat
 Calling LUMPS_cal_QHQE...
 Calling SUEWS_cal_WaterUse...
 Calling STAB_lumps...
 Calling AerodynamicResistance...
 >>> See warnings.txt for possible issues in the run <<<
 Calling SurfaceResistance...
 Calling BoundaryLayerResistance...
 Calling Drainage...
 Calling ReDistributeWater...
 Calling evap_SUEWS and SoilStore...
 Calling SUEWS_cal_QH...
 Calling SUEWS_cal_HorizontalSoilWater...
 Calling SUEWS_cal_SoilMoist...
 Calling SUEWS_cal_Diagnostics...
 Calling SUEWS_cal_RoughnessParameters...
 Calling NARP_cal_SunPosition...
 Calling SUEWS_cal_DailyState...
 Calling LUMPS_cal_AtmMoist...
 Calling SUEWS_update_SoilMoist...
 Calling NARP...
 Calling AnthropogenicEmissions...
 Calling OHM...
 Calling MeltHeat
 Calling LUMPS_cal_QHQE...
 Calling SUEWS_cal_WaterUse...
 Calling STAB_lumps...
 Calling AerodynamicResistance...
 Calling SurfaceResistance...
 Calling BoundaryLayerResistance...
 Calling Drainage...
 Calling ReDistributeWater...
 Calling evap_SUEWS and SoilStore...
 Calling SUEWS_cal_QH...
 Calling SUEWS_cal_HorizontalSoilWater...
 Calling SUEWS_cal_SoilMoist...
 Calling SUEWS_cal_Diagnostics...
 Calling SUEWS_cal_RoughnessParameters...
 Calling NARP_cal_SunPosition...
 Calling SUEWS_cal_DailyState...
 Calling LUMPS_cal_AtmMoist...
 Calling SUEWS_update_SoilMoist...
 Calling NARP...
 Calling AnthropogenicEmissions...
 Calling OHM...
 Calling MeltHeat
 Calling LUMPS_cal_QHQE...
 Calling SUEWS_cal_WaterUse...
 Calling STAB_lumps...
 Calling AerodynamicResistance...
 Calling SurfaceResistance...
 Calling BoundaryLayerResistance...
 Calling Drainage...
 Calling ReDistributeWater...
 Calling evap_SUEWS and SoilStore...
 Calling SUEWS_cal_QH...
 Calling SUEWS_cal_HorizontalSoilWater...
 Calling SUEWS_cal_SoilMoist...
 Calling SUEWS_cal_Diagnostics...
 Calling SUEWS_cal_RoughnessParameters...
 Calling NARP_cal_SunPosition...
 Calling SUEWS_cal_DailyState...
 Calling LUMPS_cal_AtmMoist...
 Calling SUEWS_update_SoilMoist...
 Calling NARP...
 Calling AnthropogenicEmissions...
 Calling OHM...
 Calling MeltHeat
 Calling LUMPS_cal_QHQE...
 Calling SUEWS_cal_WaterUse...
 Calling STAB_lumps...
 Calling AerodynamicResistance...
 Calling SurfaceResistance...
 Calling BoundaryLayerResistance...
 Calling Drainage...
 Calling ReDistributeWater...
 Calling evap_SUEWS and SoilStore...
 Calling SUEWS_cal_QH...
 Calling SUEWS_cal_HorizontalSoilWater...
 Calling SUEWS_cal_SoilMoist...
 Calling SUEWS_cal_Diagnostics...
 Calling SUEWS_cal_RoughnessParameters...
 Calling NARP_cal_SunPosition...
 Calling SUEWS_cal_DailyState...
 Calling LUMPS_cal_AtmMoist...
 Calling SUEWS_update_SoilMoist...
 Calling NARP...
 Calling AnthropogenicEmissions...
 Calling OHM...
 Calling MeltHeat
 Calling LUMPS_cal_QHQE...
 Calling SUEWS_cal_WaterUse...
 Calling STAB_lumps...
 Calling AerodynamicResistance...
 Calling SurfaceResistance...
 Calling BoundaryLayerResistance...
 Calling Drainage...
 Calling ReDistributeWater...
 Calling evap_SUEWS and SoilStore...
 Calling SUEWS_cal_QH...
 Calling SUEWS_cal_HorizontalSoilWater...
 Calling SUEWS_cal_SoilMoist...
 Calling SUEWS_cal_Diagnostics...
 Calling SUEWS_cal_RoughnessParameters...
 Calling NARP_cal_SunPosition...
 Calling SUEWS_cal_DailyState...
 Calling LUMPS_cal_AtmMoist...
 Calling SUEWS_update_SoilMoist...
 Calling NARP...
 Calling AnthropogenicEmissions...
 Calling OHM...
 Calling MeltHeat
 Calling LUMPS_cal_QHQE...
 Calling SUEWS_cal_WaterUse...
 Calling STAB_lumps...
 Calling AerodynamicResistance...
 Calling SurfaceResistance...
 Calling BoundaryLayerResistance...
 Calling Drainage...
 Calling ReDistributeWater...
 Calling evap_SUEWS and SoilStore...
 Calling SUEWS_cal_QH...
 Calling SUEWS_cal_HorizontalSoilWater...
 Calling SUEWS_cal_SoilMoist...
 Calling SUEWS_cal_Diagnostics...
 Calling SUEWS_cal_RoughnessParameters...
 Calling NARP_cal_SunPosition...
 Calling SUEWS_cal_DailyState...
 Calling LUMPS_cal_AtmMoist...
 Calling SUEWS_update_SoilMoist...
 Calling NARP...
 Calling AnthropogenicEmissions...
 Calling OHM...
 Calling MeltHeat
 Calling LUMPS_cal_QHQE...
 Calling SUEWS_cal_WaterUse...
 Calling STAB_lumps...
 Calling AerodynamicResistance...
 Calling SurfaceResistance...
 Calling BoundaryLayerResistance...
 Calling Drainage...
 Calling ReDistributeWater...
 Calling evap_SUEWS and SoilStore...
 Calling SUEWS_cal_QH...
 Calling SUEWS_cal_HorizontalSoilWater...
 Calling SUEWS_cal_SoilMoist...
 Calling SUEWS_cal_Diagnostics...
 Calling SUEWS_cal_RoughnessParameters...
 Calling NARP_cal_SunPosition...
 Calling SUEWS_cal_DailyState...
 Calling LUMPS_cal_AtmMoist...
 Calling SUEWS_update_SoilMoist...
 Calling NARP...
 Calling AnthropogenicEmissions...
 Calling OHM...
 Calling MeltHeat
 Calling LUMPS_cal_QHQE...
 Calling SUEWS_cal_WaterUse...
 Calling STAB_lumps...
 Calling AerodynamicResistance...
 Calling SurfaceResistance...
 Calling BoundaryLayerResistance...
 Calling Drainage...
 Calling ReDistributeWater...
 Calling evap_SUEWS and SoilStore...
 Calling SUEWS_cal_QH...
 Calling SUEWS_cal_HorizontalSoilWater...
 Calling SUEWS_cal_SoilMoist...
 Calling SUEWS_cal_Diagnostics...
 Calling SUEWS_cal_RoughnessParameters...
 Calling NARP_cal_SunPosition...
 Calling SUEWS_cal_DailyState...
 Calling LUMPS_cal_AtmMoist...
 Calling SUEWS_update_SoilMoist...
 Calling NARP...
 Calling AnthropogenicEmissions...
 Calling OHM...
 Calling MeltHeat
 Calling LUMPS_cal_QHQE...
 Calling SUEWS_cal_WaterUse...
 Calling STAB_lumps...
 Calling AerodynamicResistance...
 Calling SurfaceResistance...
 Calling BoundaryLayerResistance...
 Calling Drainage...
 Calling ReDistributeWater...
 Calling evap_SUEWS and SoilStore...
 Calling SUEWS_cal_QH...
 Calling SUEWS_cal_HorizontalSoilWater...
 Calling SUEWS_cal_SoilMoist...
 Calling SUEWS_cal_Diagnostics...
 Calling SUEWS_cal_RoughnessParameters...
 Calling NARP_cal_SunPosition...
 Calling SUEWS_cal_DailyState...
 Calling LUMPS_cal_AtmMoist...
 Calling SUEWS_update_SoilMoist...
 Calling NARP...
 Calling AnthropogenicEmissions...
 Calling OHM...
 Calling MeltHeat
 Calling LUMPS_cal_QHQE...
 Calling SUEWS_cal_WaterUse...
 Calling STAB_lumps...
 Calling AerodynamicResistance...
 Calling SurfaceResistance...
 Calling BoundaryLayerResistance...
 Calling Drainage...
 Calling ReDistributeWater...
 Calling evap_SUEWS and SoilStore...
 Calling SUEWS_cal_QH...
 Calling SUEWS_cal_HorizontalSoilWater...
 Calling SUEWS_cal_SoilMoist...
 Calling SUEWS_cal_Diagnostics...
 Calling SUEWS_cal_RoughnessParameters...
 Calling NARP_cal_SunPosition...
 Calling SUEWS_cal_DailyState...
 Calling LUMPS_cal_AtmMoist...
 Calling SUEWS_update_SoilMoist...
 Calling NARP...
 Calling AnthropogenicEmissions...
 Calling OHM...
 Calling MeltHeat
 Calling LUMPS_cal_QHQE...
 Calling SUEWS_cal_WaterUse...
 Calling STAB_lumps...
 Calling AerodynamicResistance...
 Calling SurfaceResistance...
 Calling BoundaryLayerResistance...
 Calling Drainage...
 Calling ReDistributeWater...
 Calling evap_SUEWS and SoilStore...
 Calling SUEWS_cal_QH...
 Calling SUEWS_cal_HorizontalSoilWater...
 Calling SUEWS_cal_SoilMoist...
 Calling SUEWS_cal_Diagnostics...
 Calling SUEWS_cal_RoughnessParameters...
 Calling NARP_cal_SunPosition...
 Calling SUEWS_cal_DailyState...
 Calling LUMPS_cal_AtmMoist...
 Calling SUEWS_update_SoilMoist...
 Calling NARP...
 Calling AnthropogenicEmissions...
 Calling OHM...
 Calling MeltHeat
 Calling LUMPS_cal_QHQE...
 Calling SUEWS_cal_WaterUse...
 Calling STAB_lumps...
 Calling AerodynamicResistance...
 Calling SurfaceResistance...
 Calling BoundaryLayerResistance...
 Calling Drainage...
 Calling ReDistributeWater...
 Calling evap_SUEWS and SoilStore...
 Calling SUEWS_cal_QH...
 Calling SUEWS_cal_HorizontalSoilWater...
 Calling SUEWS_cal_SoilMoist...
 Calling SUEWS_cal_Diagnostics...
 Calling SUEWS_cal_RoughnessParameters...
 Calling NARP_cal_SunPosition...
 Calling SUEWS_cal_DailyState...
 Calling LUMPS_cal_AtmMoist...
 Calling SUEWS_update_SoilMoist...
 Calling NARP...
 Calling AnthropogenicEmissions...
 Calling OHM...
 Calling MeltHeat
 Calling LUMPS_cal_QHQE...
 Calling SUEWS_cal_WaterUse...
 Calling STAB_lumps...
 Calling AerodynamicResistance...
 Calling SurfaceResistance...
 Calling BoundaryLayerResistance...
 Calling Drainage...
 Calling ReDistributeWater...
 Calling evap_SUEWS and SoilStore...
 Calling SUEWS_cal_QH...
 Calling SUEWS_cal_HorizontalSoilWater...
 Calling SUEWS_cal_SoilMoist...
 Calling SUEWS_cal_Diagnostics...
 Calling SUEWS_cal_RoughnessParameters...
 Calling NARP_cal_SunPosition...
 Calling SUEWS_cal_DailyState...
 Calling LUMPS_cal_AtmMoist...
 Calling SUEWS_update_SoilMoist...
 Calling NARP...
 Calling AnthropogenicEmissions...
 Calling OHM...
 Calling MeltHeat
 Calling LUMPS_cal_QHQE...
 Calling SUEWS_cal_WaterUse...
 Calling STAB_lumps...
 Calling AerodynamicResistance...
 Calling SurfaceResistance...
 Calling BoundaryLayerResistance...
 Calling Drainage...
 Calling ReDistributeWater...
 Calling evap_SUEWS and SoilStore...
 Calling SUEWS_cal_QH...
 Calling SUEWS_cal_HorizontalSoilWater...
 Calling SUEWS_cal_SoilMoist...
 Calling SUEWS_cal_Diagnostics...
 Calling SUEWS_cal_RoughnessParameters...
 Calling NARP_cal_SunPosition...
 Calling SUEWS_cal_DailyState...
 Calling LUMPS_cal_AtmMoist...
 Calling SUEWS_update_SoilMoist...
 Calling NARP...
 Calling AnthropogenicEmissions...
 Calling OHM...
 Calling MeltHeat
 Calling LUMPS_cal_QHQE...
 Calling SUEWS_cal_WaterUse...
 Calling STAB_lumps...
 Calling AerodynamicResistance...
 Calling SurfaceResistance...
 Calling BoundaryLayerResistance...
 Calling Drainage...
 Calling ReDistributeWater...
 Calling evap_SUEWS and SoilStore...
 Calling SUEWS_cal_QH...
 Calling SUEWS_cal_HorizontalSoilWater...
 Calling SUEWS_cal_SoilMoist...
 Calling SUEWS_cal_Diagnostics...
 Calling SUEWS_cal_RoughnessParameters...
 Calling NARP_cal_SunPosition...
 Calling SUEWS_cal_DailyState...
 Calling LUMPS_cal_AtmMoist...
 Calling SUEWS_update_SoilMoist...
 Calling NARP...
 Calling AnthropogenicEmissions...
 Calling OHM...
 Calling MeltHeat
 Calling LUMPS_cal_QHQE...
 Calling SUEWS_cal_WaterUse...
 Calling STAB_lumps...
 Calling AerodynamicResistance...
 Calling SurfaceResistance...
 Calling BoundaryLayerResistance...
 Calling Drainage...
 Calling ReDistributeWater...
 Calling evap_SUEWS and SoilStore...
 Calling SUEWS_cal_QH...
 Calling SUEWS_cal_HorizontalSoilWater...
 Calling SUEWS_cal_SoilMoist...
 Calling SUEWS_cal_Diagnostics...
 Calling SUEWS_cal_RoughnessParameters...
 Calling NARP_cal_SunPosition...
 Calling SUEWS_cal_DailyState...
 Calling LUMPS_cal_AtmMoist...
 Calling SUEWS_update_SoilMoist...
 Calling NARP...
 Calling AnthropogenicEmissions...
 Calling OHM...
 Calling MeltHeat
 Calling LUMPS_cal_QHQE...
 Calling SUEWS_cal_WaterUse...
 Calling STAB_lumps...
 Calling AerodynamicResistance...
 Calling SurfaceResistance...
 Calling BoundaryLayerResistance...
 Calling Drainage...
 Calling ReDistributeWater...
 Calling evap_SUEWS and SoilStore...
 Calling SUEWS_cal_QH...
 Calling SUEWS_cal_HorizontalSoilWater...
 Calling SUEWS_cal_SoilMoist...
 Calling SUEWS_cal_Diagnostics...
 Calling SUEWS_cal_RoughnessParameters...
 Calling NARP_cal_SunPosition...
 Calling SUEWS_cal_DailyState...
 Calling LUMPS_cal_AtmMoist...
 Calling SUEWS_update_SoilMoist...
 Calling NARP...
 Calling AnthropogenicEmissions...
 Calling OHM...
 Calling MeltHeat
 Calling LUMPS_cal_QHQE...
 Calling SUEWS_cal_WaterUse...
 Calling STAB_lumps...
 Calling AerodynamicResistance...
 Calling SurfaceResistance...
 Calling BoundaryLayerResistance...
 Calling Drainage...
 Calling ReDistributeWater...
 Calling evap_SUEWS and SoilStore...
 Calling SUEWS_cal_QH...
 Calling SUEWS_cal_HorizontalSoilWater...
 Calling SUEWS_cal_SoilMoist...
 Calling SUEWS_cal_Diagnostics...
 Calling SUEWS_cal_RoughnessParameters...
 Calling NARP_cal_SunPosition...
 Calling SUEWS_cal_DailyState...
 Calling LUMPS_cal_AtmMoist...
 Calling SUEWS_update_SoilMoist...
 Calling NARP...
 Calling AnthropogenicEmissions...
 Calling OHM...
 Calling MeltHeat
 Calling LUMPS_cal_QHQE...
 Calling SUEWS_cal_WaterUse...
 Calling STAB_lumps...
 Calling AerodynamicResistance...
 Calling SurfaceResistance...
 Calling BoundaryLayerResistance...
 Calling Drainage...
 Calling ReDistributeWater...
 Calling evap_SUEWS and SoilStore...
 Calling SUEWS_cal_QH...
 Calling SUEWS_cal_HorizontalSoilWater...
 Calling SUEWS_cal_SoilMoist...
 Calling SUEWS_cal_Diagnostics...
 Calling SUEWS_cal_RoughnessParameters...
 Calling NARP_cal_SunPosition...
 Calling SUEWS_cal_DailyState...
 Calling LUMPS_cal_AtmMoist...
 Calling SUEWS_update_SoilMoist...
 Calling NARP...
 Calling AnthropogenicEmissions...
 Calling OHM...
 Calling MeltHeat
 Calling LUMPS_cal_QHQE...
 Calling SUEWS_cal_WaterUse...
 Calling STAB_lumps...
 Calling AerodynamicResistance...
 Calling SurfaceResistance...
 Calling BoundaryLayerResistance...
 Calling Drainage...
 Calling ReDistributeWater...
 Calling evap_SUEWS and SoilStore...
 Calling SUEWS_cal_QH...
 Calling SUEWS_cal_HorizontalSoilWater...
 Calling SUEWS_cal_SoilMoist...
 Calling SUEWS_cal_Diagnostics...
 Calling SUEWS_cal_RoughnessParameters...
 Calling NARP_cal_SunPosition...
 Calling SUEWS_cal_DailyState...
 Calling LUMPS_cal_AtmMoist...
 Calling SUEWS_update_SoilMoist...
 Calling NARP...
 Calling AnthropogenicEmissions...
 Calling OHM...
 Calling MeltHeat
 Calling LUMPS_cal_QHQE...
 Calling SUEWS_cal_WaterUse...
 Calling STAB_lumps...
 Calling AerodynamicResistance...
 Calling SurfaceResistance...
 Calling BoundaryLayerResistance...
 Calling Drainage...
 Calling ReDistributeWater...
 Calling evap_SUEWS and SoilStore...
 Calling SUEWS_cal_QH...
 Calling SUEWS_cal_HorizontalSoilWater...
 Calling SUEWS_cal_SoilMoist...
 Calling SUEWS_cal_Diagnostics...
 Calling SUEWS_cal_RoughnessParameters...
 Calling NARP_cal_SunPosition...
 Calling SUEWS_cal_DailyState...
 Calling LUMPS_cal_AtmMoist...
 Calling SUEWS_update_SoilMoist...
 Calling NARP...
 Calling AnthropogenicEmissions...
 Calling OHM...
 Calling MeltHeat
 Calling LUMPS_cal_QHQE...
 Calling SUEWS_cal_WaterUse...
 Calling STAB_lumps...
 Calling AerodynamicResistance...
 Calling SurfaceResistance...
 Calling BoundaryLayerResistance...
 Calling Drainage...
 Calling ReDistributeWater...
 Calling evap_SUEWS and SoilStore...
 Calling SUEWS_cal_QH...
 Calling SUEWS_cal_HorizontalSoilWater...
 Calling SUEWS_cal_SoilMoist...
 Calling SUEWS_cal_Diagnostics...
 Calling SUEWS_cal_RoughnessParameters...
 Calling NARP_cal_SunPosition...
 Calling SUEWS_cal_DailyState...
 Calling LUMPS_cal_AtmMoist...
 Calling SUEWS_update_SoilMoist...
 Calling NARP...
 Calling AnthropogenicEmissions...
 Calling OHM...
 Calling MeltHeat
 Calling LUMPS_cal_QHQE...
 Calling SUEWS_cal_WaterUse...
 Calling STAB_lumps...
 Calling AerodynamicResistance...
 Calling SurfaceResistance...
 Calling BoundaryLayerResistance...
 Calling Drainage...
 Calling ReDistributeWater...
 Calling evap_SUEWS and SoilStore...
 Calling SUEWS_cal_QH...
 Calling SUEWS_cal_HorizontalSoilWater...
 Calling SUEWS_cal_SoilMoist...
 Calling SUEWS_cal_Diagnostics...
 Calling SUEWS_cal_RoughnessParameters...
 Calling NARP_cal_SunPosition...
 Calling SUEWS_cal_DailyState...
 Calling LUMPS_cal_AtmMoist...
 Calling SUEWS_update_SoilMoist...
 Calling NARP...
 Calling AnthropogenicEmissions...
 Calling OHM...
 Calling MeltHeat
 Calling LUMPS_cal_QHQE...
 Calling SUEWS_cal_WaterUse...
 Calling STAB_lumps...
 Calling AerodynamicResistance...
 Calling SurfaceResistance...
 Calling BoundaryLayerResistance...
 Calling Drainage...
 Calling ReDistributeWater...
 Calling evap_SUEWS and SoilStore...
 Calling SUEWS_cal_QH...
 Calling SUEWS_cal_HorizontalSoilWater...
 Calling SUEWS_cal_SoilMoist...
 Calling SUEWS_cal_Diagnostics...
 Calling SUEWS_cal_RoughnessParameters...
 Calling NARP_cal_SunPosition...
 Calling SUEWS_cal_DailyState...
 Calling LUMPS_cal_AtmMoist...
 Calling SUEWS_update_SoilMoist...
 Calling NARP...
 Calling AnthropogenicEmissions...
 Calling OHM...
 Calling MeltHeat
 Calling LUMPS_cal_QHQE...
 Calling SUEWS_cal_WaterUse...
 Calling STAB_lumps...
 Calling AerodynamicResistance...
 Calling SurfaceResistance...
 Calling BoundaryLayerResistance...
 Calling Drainage...
 Calling ReDistributeWater...
 Calling evap_SUEWS and SoilStore...
 Calling SUEWS_cal_QH...
 Calling SUEWS_cal_HorizontalSoilWater...
 Calling SUEWS_cal_SoilMoist...
 Calling SUEWS_cal_Diagnostics...
Timing for main: time 2010-09-01_00:05:00 on domain   1:    0.28161 elapsed seconds
Timing for Writing wrfout_d01_2010-09-01_00:05:00 for domain        1:    0.00365 elapsed seconds
 year =         2010 day =          244 hour =            0 minute =            5
 Calling SUEWS_cal_RoughnessParameters...
 Calling NARP_cal_SunPosition...
 Calling SUEWS_cal_DailyState...
 Calling LUMPS_cal_AtmMoist...
 Calling SUEWS_update_SoilMoist...
 Calling NARP...
 Calling AnthropogenicEmissions...
 Calling OHM...
 Calling MeltHeat
 Calling LUMPS_cal_QHQE...
 Calling SUEWS_cal_WaterUse...
 Calling STAB_lumps...
 Calling AerodynamicResistance...
 Calling SurfaceResistance...
 Calling BoundaryLayerResistance...
 Calling Drainage...
 Calling ReDistributeWater...
 Calling evap_SUEWS and SoilStore...
 Calling SUEWS_cal_QH...
 Calling SUEWS_cal_HorizontalSoilWater...
 Calling SUEWS_cal_SoilMoist...
 Calling SUEWS_cal_Diagnostics...
 Calling SUEWS_cal_RoughnessParameters...
 Calling NARP_cal_SunPosition...
 Calling SUEWS_cal_DailyState...
 Calling LUMPS_cal_AtmMoist...
 Calling SUEWS_update_SoilMoist...
 Calling NARP...
 Calling AnthropogenicEmissions...
 Calling OHM...
 Calling MeltHeat
 Calling LUMPS_cal_QHQE...
 Calling SUEWS_cal_WaterUse...
 Calling STAB_lumps...
 Calling AerodynamicResistance...
 Calling SurfaceResistance...
 Calling BoundaryLayerResistance...
 Calling Drainage...
 Calling ReDistributeWater...
 Calling evap_SUEWS and SoilStore...
 Calling SUEWS_cal_QH...
 Calling SUEWS_cal_HorizontalSoilWater...
 Calling SUEWS_cal_SoilMoist...
 Calling SUEWS_cal_Diagnostics...
 Calling SUEWS_cal_RoughnessParameters...
 Calling NARP_cal_SunPosition...
 Calling SUEWS_cal_DailyState...
 Calling LUMPS_cal_AtmMoist...
 Calling SUEWS_update_SoilMoist...
 Calling NARP...
 Calling AnthropogenicEmissions...
 Calling OHM...
 Calling MeltHeat
 Calling LUMPS_cal_QHQE...
 Calling SUEWS_cal_WaterUse...
 Calling STAB_lumps...
 Calling AerodynamicResistance...
 Calling SurfaceResistance...
 Calling BoundaryLayerResistance...
 Calling Drainage...
 Calling ReDistributeWater...
 Calling evap_SUEWS and SoilStore...
 Calling SUEWS_cal_QH...
 Calling SUEWS_cal_HorizontalSoilWater...
 Calling SUEWS_cal_SoilMoist...
 Calling SUEWS_cal_Diagnostics...
 Calling SUEWS_cal_RoughnessParameters...
 Calling NARP_cal_SunPosition...
 Calling SUEWS_cal_DailyState...
 Calling LUMPS_cal_AtmMoist...
 Calling SUEWS_update_SoilMoist...
 Calling NARP...
 Calling AnthropogenicEmissions...
 Calling OHM...
 Calling MeltHeat
 Calling LUMPS_cal_QHQE...
 Calling SUEWS_cal_WaterUse...
 Calling STAB_lumps...
 Calling AerodynamicResistance...
 Calling SurfaceResistance...
 Calling BoundaryLayerResistance...
 Calling Drainage...
 Calling ReDistributeWater...
 Calling evap_SUEWS and SoilStore...
 Calling SUEWS_cal_QH...
 Calling SUEWS_cal_HorizontalSoilWater...
 Calling SUEWS_cal_SoilMoist...
 Calling SUEWS_cal_Diagnostics...
 Calling SUEWS_cal_RoughnessParameters...
 Calling NARP_cal_SunPosition...
 Calling SUEWS_cal_DailyState...
 Calling LUMPS_cal_AtmMoist...
 Calling SUEWS_update_SoilMoist...
 Calling NARP...
 Calling AnthropogenicEmissions...
 Calling OHM...
 Calling MeltHeat
 Calling LUMPS_cal_QHQE...
 Calling SUEWS_cal_WaterUse...
 Calling STAB_lumps...
 Calling AerodynamicResistance...
 Calling SurfaceResistance...
 Calling BoundaryLayerResistance...
 Calling Drainage...
 Calling ReDistributeWater...
 Calling evap_SUEWS and SoilStore...
 Calling SUEWS_cal_QH...
 Calling SUEWS_cal_HorizontalSoilWater...
 Calling SUEWS_cal_SoilMoist...
 Calling SUEWS_cal_Diagnostics...
 Calling SUEWS_cal_RoughnessParameters...
 Calling NARP_cal_SunPosition...
 Calling SUEWS_cal_DailyState...
 Calling LUMPS_cal_AtmMoist...
 Calling SUEWS_update_SoilMoist...
 Calling NARP...
 Calling AnthropogenicEmissions...
 Calling OHM...
 Calling MeltHeat
 Calling LUMPS_cal_QHQE...
 Calling SUEWS_cal_WaterUse...
 Calling STAB_lumps...
 Calling AerodynamicResistance...
 Calling SurfaceResistance...
 Calling BoundaryLayerResistance...
 Calling Drainage...
 Calling ReDistributeWater...
 Calling evap_SUEWS and SoilStore...
 Calling SUEWS_cal_QH...
 Calling SUEWS_cal_HorizontalSoilWater...
 Calling SUEWS_cal_SoilMoist...
 Calling SUEWS_cal_Diagnostics...
 Calling SUEWS_cal_RoughnessParameters...
 Calling NARP_cal_SunPosition...
 Calling SUEWS_cal_DailyState...
 Calling LUMPS_cal_AtmMoist...
 Calling SUEWS_update_SoilMoist...
 Calling NARP...
 Calling AnthropogenicEmissions...
 Calling OHM...
 Calling MeltHeat
 Calling LUMPS_cal_QHQE...
 Calling SUEWS_cal_WaterUse...
 Calling STAB_lumps...
 Calling AerodynamicResistance...
 Calling SurfaceResistance...
 Calling BoundaryLayerResistance...
 Calling Drainage...
 Calling ReDistributeWater...
 Calling evap_SUEWS and SoilStore...
 Calling SUEWS_cal_QH...
 Calling SUEWS_cal_HorizontalSoilWater...
 Calling SUEWS_cal_SoilMoist...
 Calling SUEWS_cal_Diagnostics...
 Calling SUEWS_cal_RoughnessParameters...
 Calling NARP_cal_SunPosition...
 Calling SUEWS_cal_DailyState...
 Calling LUMPS_cal_AtmMoist...
 Calling SUEWS_update_SoilMoist...
 Calling NARP...
 Calling AnthropogenicEmissions...
 Calling OHM...
 Calling MeltHeat
 Calling LUMPS_cal_QHQE...
 Calling SUEWS_cal_WaterUse...
 Calling STAB_lumps...
 Calling AerodynamicResistance...
 Calling SurfaceResistance...
 Calling BoundaryLayerResistance...
 Calling Drainage...
 Calling ReDistributeWater...
 Calling evap_SUEWS and SoilStore...
 Calling SUEWS_cal_QH...
 Calling SUEWS_cal_HorizontalSoilWater...
 Calling SUEWS_cal_SoilMoist...
 Calling SUEWS_cal_Diagnostics...
 Calling SUEWS_cal_RoughnessParameters...
 Calling NARP_cal_SunPosition...
 Calling SUEWS_cal_DailyState...
 Calling LUMPS_cal_AtmMoist...
 Calling SUEWS_update_SoilMoist...
 Calling NARP...
 Calling AnthropogenicEmissions...
 Calling OHM...
 Calling MeltHeat
 Calling LUMPS_cal_QHQE...
 Calling SUEWS_cal_WaterUse...
 Calling STAB_lumps...
 Calling AerodynamicResistance...
 Calling SurfaceResistance...
 Calling BoundaryLayerResistance...
 Calling Drainage...
 Calling ReDistributeWater...
 Calling evap_SUEWS and SoilStore...
 Calling SUEWS_cal_QH...
 Calling SUEWS_cal_HorizontalSoilWater...
 Calling SUEWS_cal_SoilMoist...
 Calling SUEWS_cal_Diagnostics...
 Calling SUEWS_cal_RoughnessParameters...
 Calling NARP_cal_SunPosition...
 Calling SUEWS_cal_DailyState...
 Calling LUMPS_cal_AtmMoist...
 Calling SUEWS_update_SoilMoist...
 Calling NARP...
 Calling AnthropogenicEmissions...
 Calling OHM...
 Calling MeltHeat
 Calling LUMPS_cal_QHQE...
 Calling SUEWS_cal_WaterUse...
 Calling STAB_lumps...
 Calling AerodynamicResistance...
 Calling SurfaceResistance...
 Calling BoundaryLayerResistance...
 Calling Drainage...
 Calling ReDistributeWater...
 Calling evap_SUEWS and SoilStore...
 Calling SUEWS_cal_QH...
 Calling SUEWS_cal_HorizontalSoilWater...
 Calling SUEWS_cal_SoilMoist...
 Calling SUEWS_cal_Diagnostics...
 Calling SUEWS_cal_RoughnessParameters...
 Calling NARP_cal_SunPosition...
 Calling SUEWS_cal_DailyState...
 Calling LUMPS_cal_AtmMoist...
 Calling SUEWS_update_SoilMoist...
 Calling NARP...
 Calling AnthropogenicEmissions...
 Calling OHM...
 Calling MeltHeat
 Calling LUMPS_cal_QHQE...
 Calling SUEWS_cal_WaterUse...
 Calling STAB_lumps...
 Calling AerodynamicResistance...
 Calling SurfaceResistance...
 Calling BoundaryLayerResistance...
 Calling Drainage...
 Calling ReDistributeWater...
 Calling evap_SUEWS and SoilStore...
 Calling SUEWS_cal_QH...
 Calling SUEWS_cal_HorizontalSoilWater...
 Calling SUEWS_cal_SoilMoist...
 Calling SUEWS_cal_Diagnostics...
 Calling SUEWS_cal_RoughnessParameters...
 Calling NARP_cal_SunPosition...
 Calling SUEWS_cal_DailyState...
 Calling LUMPS_cal_AtmMoist...
 Calling SUEWS_update_SoilMoist...
 Calling NARP...
 Calling AnthropogenicEmissions...
 Calling OHM...
 Calling MeltHeat
 Calling LUMPS_cal_QHQE...
 Calling SUEWS_cal_WaterUse...
 Calling STAB_lumps...
 Calling AerodynamicResistance...
 Calling SurfaceResistance...
 Calling BoundaryLayerResistance...
 Calling Drainage...
 Calling ReDistributeWater...
 Calling evap_SUEWS and SoilStore...
 Calling SUEWS_cal_QH...
 Calling SUEWS_cal_HorizontalSoilWater...
 Calling SUEWS_cal_SoilMoist...
 Calling SUEWS_cal_Diagnostics...
 Calling SUEWS_cal_RoughnessParameters...
 Calling NARP_cal_SunPosition...
 Calling SUEWS_cal_DailyState...
 Calling LUMPS_cal_AtmMoist...
 Calling SUEWS_update_SoilMoist...
 Calling NARP...
 Calling AnthropogenicEmissions...
 Calling OHM...
 Calling MeltHeat
 Calling LUMPS_cal_QHQE...
 Calling SUEWS_cal_WaterUse...
 Calling STAB_lumps...
 Calling AerodynamicResistance...
 Calling SurfaceResistance...
 Calling BoundaryLayerResistance...
 Calling Drainage...
 Calling ReDistributeWater...
 Calling evap_SUEWS and SoilStore...
 Calling SUEWS_cal_QH...
 Calling SUEWS_cal_HorizontalSoilWater...
 Calling SUEWS_cal_SoilMoist...
 Calling SUEWS_cal_Diagnostics...
 Calling SUEWS_cal_RoughnessParameters...
 Calling NARP_cal_SunPosition...
 Calling SUEWS_cal_DailyState...
 Calling LUMPS_cal_AtmMoist...
 Calling SUEWS_update_SoilMoist...
 Calling NARP...
 Calling AnthropogenicEmissions...
 Calling OHM...
 Calling MeltHeat
 Calling LUMPS_cal_QHQE...
 Calling SUEWS_cal_WaterUse...
 Calling STAB_lumps...
 Calling AerodynamicResistance...
 Calling SurfaceResistance...
 Calling BoundaryLayerResistance...
 Calling Drainage...
 Calling ReDistributeWater...
 Calling evap_SUEWS and SoilStore...
 Calling SUEWS_cal_QH...
 Calling SUEWS_cal_HorizontalSoilWater...
 Calling SUEWS_cal_SoilMoist...
 Calling SUEWS_cal_Diagnostics...
 Calling SUEWS_cal_RoughnessParameters...
 Calling NARP_cal_SunPosition...
 Calling SUEWS_cal_DailyState...
 Calling LUMPS_cal_AtmMoist...
 Calling SUEWS_update_SoilMoist...
 Calling NARP...
 Calling AnthropogenicEmissions...
 Calling OHM...
 Calling MeltHeat
 Calling LUMPS_cal_QHQE...
 Calling SUEWS_cal_WaterUse...
 Calling STAB_lumps...
 Calling AerodynamicResistance...
 Calling SurfaceResistance...
 Calling BoundaryLayerResistance...
 Calling Drainage...
 Calling ReDistributeWater...
 Calling evap_SUEWS and SoilStore...
 Calling SUEWS_cal_QH...
 Calling SUEWS_cal_HorizontalSoilWater...
 Calling SUEWS_cal_SoilMoist...
 Calling SUEWS_cal_Diagnostics...
 Calling SUEWS_cal_RoughnessParameters...
 Calling NARP_cal_SunPosition...
 Calling SUEWS_cal_DailyState...
 Calling LUMPS_cal_AtmMoist...
 Calling SUEWS_update_SoilMoist...
 Calling NARP...
 Calling AnthropogenicEmissions...
 Calling OHM...
 Calling MeltHeat
 Calling LUMPS_cal_QHQE...
 Calling SUEWS_cal_WaterUse...
 Calling STAB_lumps...
 Calling AerodynamicResistance...
 Calling SurfaceResistance...
 Calling BoundaryLayerResistance...
 Calling Drainage...
 Calling ReDistributeWater...
 Calling evap_SUEWS and SoilStore...
 Calling SUEWS_cal_QH...
 Calling SUEWS_cal_HorizontalSoilWater...
 Calling SUEWS_cal_SoilMoist...
 Calling SUEWS_cal_Diagnostics...
 Calling SUEWS_cal_RoughnessParameters...
 Calling NARP_cal_SunPosition...
 Calling SUEWS_cal_DailyState...
 Calling LUMPS_cal_AtmMoist...
 Calling SUEWS_update_SoilMoist...
 Calling NARP...
 Calling AnthropogenicEmissions...
 Calling OHM...
 Calling MeltHeat
 Calling LUMPS_cal_QHQE...
 Calling SUEWS_cal_WaterUse...
 Calling STAB_lumps...
 Calling AerodynamicResistance...
 Calling SurfaceResistance...
 Calling BoundaryLayerResistance...
 Calling Drainage...
 Calling ReDistributeWater...
 Calling evap_SUEWS and SoilStore...
 Calling SUEWS_cal_QH...
 Calling SUEWS_cal_HorizontalSoilWater...
 Calling SUEWS_cal_SoilMoist...
 Calling SUEWS_cal_Diagnostics...
 Calling SUEWS_cal_RoughnessParameters...
 Calling NARP_cal_SunPosition...
 Calling SUEWS_cal_DailyState...
 Calling LUMPS_cal_AtmMoist...
 Calling SUEWS_update_SoilMoist...
 Calling NARP...
 Calling AnthropogenicEmissions...
 Calling OHM...
 Calling MeltHeat
 Calling LUMPS_cal_QHQE...
 Calling SUEWS_cal_WaterUse...
 Calling STAB_lumps...
 Calling AerodynamicResistance...
 Calling SurfaceResistance...
 Calling BoundaryLayerResistance...
 Calling Drainage...
 Calling ReDistributeWater...
 Calling evap_SUEWS and SoilStore...
 Calling SUEWS_cal_QH...
 Calling SUEWS_cal_HorizontalSoilWater...
 Calling SUEWS_cal_SoilMoist...
 Calling SUEWS_cal_Diagnostics...
 Calling SUEWS_cal_RoughnessParameters...
 Calling NARP_cal_SunPosition...
 Calling SUEWS_cal_DailyState...
 Calling LUMPS_cal_AtmMoist...
 Calling SUEWS_update_SoilMoist...
 Calling NARP...
 Calling AnthropogenicEmissions...
 Calling OHM...
 Calling MeltHeat
 Calling LUMPS_cal_QHQE...
 Calling SUEWS_cal_WaterUse...
 Calling STAB_lumps...
 Calling AerodynamicResistance...
 Calling SurfaceResistance...
 Calling BoundaryLayerResistance...
 Calling Drainage...
 Calling ReDistributeWater...
 Calling evap_SUEWS and SoilStore...
 Calling SUEWS_cal_QH...
 Calling SUEWS_cal_HorizontalSoilWater...
 Calling SUEWS_cal_SoilMoist...
 Calling SUEWS_cal_Diagnostics...
 Calling SUEWS_cal_RoughnessParameters...
 Calling NARP_cal_SunPosition...
 Calling SUEWS_cal_DailyState...
 Calling LUMPS_cal_AtmMoist...
 Calling SUEWS_update_SoilMoist...
 Calling NARP...
 Calling AnthropogenicEmissions...
 Calling OHM...
 Calling MeltHeat
 Calling LUMPS_cal_QHQE...
 Calling SUEWS_cal_WaterUse...
 Calling STAB_lumps...
 Calling AerodynamicResistance...
 Calling SurfaceResistance...
 Calling BoundaryLayerResistance...
 Calling Drainage...
 Calling ReDistributeWater...
 Calling evap_SUEWS and SoilStore...
 Calling SUEWS_cal_QH...
 Calling SUEWS_cal_HorizontalSoilWater...
 Calling SUEWS_cal_SoilMoist...
 Calling SUEWS_cal_Diagnostics...
 Calling SUEWS_cal_RoughnessParameters...
 Calling NARP_cal_SunPosition...
 Calling SUEWS_cal_DailyState...
 Calling LUMPS_cal_AtmMoist...
 Calling SUEWS_update_SoilMoist...
 Calling NARP...
 Calling AnthropogenicEmissions...
 Calling OHM...
 Calling MeltHeat
 Calling LUMPS_cal_QHQE...
 Calling SUEWS_cal_WaterUse...
 Calling STAB_lumps...
 Calling AerodynamicResistance...
 Calling SurfaceResistance...
 Calling BoundaryLayerResistance...
 Calling Drainage...
 Calling ReDistributeWater...
 Calling evap_SUEWS and SoilStore...
 Calling SUEWS_cal_QH...
 Calling SUEWS_cal_HorizontalSoilWater...
 Calling SUEWS_cal_SoilMoist...
 Calling SUEWS_cal_Diagnostics...
 Calling SUEWS_cal_RoughnessParameters...
 Calling NARP_cal_SunPosition...
 Calling SUEWS_cal_DailyState...
 Calling LUMPS_cal_AtmMoist...
 Calling SUEWS_update_SoilMoist...
 Calling NARP...
 Calling AnthropogenicEmissions...
 Calling OHM...
 Calling MeltHeat
 Calling LUMPS_cal_QHQE...
 Calling SUEWS_cal_WaterUse...
 Calling STAB_lumps...
 Calling AerodynamicResistance...
 Calling SurfaceResistance...
 Calling BoundaryLayerResistance...
 Calling Drainage...
 Calling ReDistributeWater...
 Calling evap_SUEWS and SoilStore...
 Calling SUEWS_cal_QH...
 Calling SUEWS_cal_HorizontalSoilWater...
 Calling SUEWS_cal_SoilMoist...
 Calling SUEWS_cal_Diagnostics...
 Calling SUEWS_cal_RoughnessParameters...
 Calling NARP_cal_SunPosition...
 Calling SUEWS_cal_DailyState...
 Calling LUMPS_cal_AtmMoist...
 Calling SUEWS_update_SoilMoist...
 Calling NARP...
 Calling AnthropogenicEmissions...
 Calling OHM...
 Calling MeltHeat
 Calling LUMPS_cal_QHQE...
 Calling SUEWS_cal_WaterUse...
 Calling STAB_lumps...
 Calling AerodynamicResistance...
 Calling SurfaceResistance...
 Calling BoundaryLayerResistance...
 Calling Drainage...
 Calling ReDistributeWater...
 Calling evap_SUEWS and SoilStore...
 Calling SUEWS_cal_QH...
 Calling SUEWS_cal_HorizontalSoilWater...
 Calling SUEWS_cal_SoilMoist...
 Calling SUEWS_cal_Diagnostics...
 Calling SUEWS_cal_RoughnessParameters...
 Calling NARP_cal_SunPosition...
 Calling SUEWS_cal_DailyState...
 Calling LUMPS_cal_AtmMoist...
 Calling SUEWS_update_SoilMoist...
 Calling NARP...
 Calling AnthropogenicEmissions...
 Calling OHM...
 Calling MeltHeat
 Calling LUMPS_cal_QHQE...
 Calling SUEWS_cal_WaterUse...
 Calling STAB_lumps...
 Calling AerodynamicResistance...
 Calling SurfaceResistance...
 Calling BoundaryLayerResistance...
 Calling Drainage...
 Calling ReDistributeWater...
 Calling evap_SUEWS and SoilStore...
 Calling SUEWS_cal_QH...
 Calling SUEWS_cal_HorizontalSoilWater...
 Calling SUEWS_cal_SoilMoist...
 Calling SUEWS_cal_Diagnostics...
 Calling SUEWS_cal_RoughnessParameters...
 Calling NARP_cal_SunPosition...
 Calling SUEWS_cal_DailyState...
 Calling LUMPS_cal_AtmMoist...
 Calling SUEWS_update_SoilMoist...
 Calling NARP...
 Calling AnthropogenicEmissions...
 Calling OHM...
 Calling MeltHeat
 Calling LUMPS_cal_QHQE...
 Calling SUEWS_cal_WaterUse...
 Calling STAB_lumps...
 Calling AerodynamicResistance...
 Calling SurfaceResistance...
 Calling BoundaryLayerResistance...
 Calling Drainage...
 Calling ReDistributeWater...
 Calling evap_SUEWS and SoilStore...
 Calling SUEWS_cal_QH...
 Calling SUEWS_cal_HorizontalSoilWater...
 Calling SUEWS_cal_SoilMoist...
 Calling SUEWS_cal_Diagnostics...
Timing for main: time 2010-09-01_00:10:00 on domain   1:    0.01422 elapsed seconds
Timing for Writing wrfout_d01_2010-09-01_00:10:00 for domain        1:    0.00450 elapsed seconds
 year =         2010 day =          244 hour =            0 minute =           10
 Calling SUEWS_cal_RoughnessParameters...
 Calling NARP_cal_SunPosition...
 Calling SUEWS_cal_DailyState...
 Calling LUMPS_cal_AtmMoist...
 Calling SUEWS_update_SoilMoist...
 Calling NARP...
 Calling AnthropogenicEmissions...
 Calling OHM...
 Calling MeltHeat
 Calling LUMPS_cal_QHQE...
 Calling SUEWS_cal_WaterUse...
 Calling STAB_lumps...
 Calling AerodynamicResistance...
 Calling SurfaceResistance...
 Calling BoundaryLayerResistance...
 Calling Drainage...
 Calling ReDistributeWater...
 Calling evap_SUEWS and SoilStore...
 Calling SUEWS_cal_QH...
 Calling SUEWS_cal_HorizontalSoilWater...
 Calling SUEWS_cal_SoilMoist...
 Calling SUEWS_cal_Diagnostics...
 Calling SUEWS_cal_RoughnessParameters...
 Calling NARP_cal_SunPosition...
 Calling SUEWS_cal_DailyState...
 Calling LUMPS_cal_AtmMoist...
 Calling SUEWS_update_SoilMoist...
 Calling NARP...
 Calling AnthropogenicEmissions...
 Calling OHM...
 Calling MeltHeat
 Calling LUMPS_cal_QHQE...
 Calling SUEWS_cal_WaterUse...
 Calling STAB_lumps...
 Calling AerodynamicResistance...
 Calling SurfaceResistance...
 Calling BoundaryLayerResistance...
 Calling Drainage...
 Calling ReDistributeWater...
 Calling evap_SUEWS and SoilStore...
 Calling SUEWS_cal_QH...
 Calling SUEWS_cal_HorizontalSoilWater...
 Calling SUEWS_cal_SoilMoist...
 Calling SUEWS_cal_Diagnostics...
 Calling SUEWS_cal_RoughnessParameters...
 Calling NARP_cal_SunPosition...
 Calling SUEWS_cal_DailyState...
 Calling LUMPS_cal_AtmMoist...
 Calling SUEWS_update_SoilMoist...
 Calling NARP...
 Calling AnthropogenicEmissions...
 Calling OHM...
 Calling MeltHeat
 Calling LUMPS_cal_QHQE...
 Calling SUEWS_cal_WaterUse...
 Calling STAB_lumps...
 Calling AerodynamicResistance...
 Calling SurfaceResistance...
 Calling BoundaryLayerResistance...
 Calling Drainage...
 Calling ReDistributeWater...
 Calling evap_SUEWS and SoilStore...
 Calling SUEWS_cal_QH...
 Calling SUEWS_cal_HorizontalSoilWater...
 Calling SUEWS_cal_SoilMoist...
 Calling SUEWS_cal_Diagnostics...
 Calling SUEWS_cal_RoughnessParameters...
 Calling NARP_cal_SunPosition...
 Calling SUEWS_cal_DailyState...
 Calling LUMPS_cal_AtmMoist...
 Calling SUEWS_update_SoilMoist...
 Calling NARP...
 Calling AnthropogenicEmissions...
 Calling OHM...
 Calling MeltHeat
 Calling LUMPS_cal_QHQE...
 Calling SUEWS_cal_WaterUse...
 Calling STAB_lumps...
 Calling AerodynamicResistance...
 Calling SurfaceResistance...
 Calling BoundaryLayerResistance...
 Calling Drainage...
 Calling ReDistributeWater...
 Calling evap_SUEWS and SoilStore...
 Calling SUEWS_cal_QH...
 Calling SUEWS_cal_HorizontalSoilWater...
 Calling SUEWS_cal_SoilMoist...
 Calling SUEWS_cal_Diagnostics...
 Calling SUEWS_cal_RoughnessParameters...
 Calling NARP_cal_SunPosition...
 Calling SUEWS_cal_DailyState...
 Calling LUMPS_cal_AtmMoist...
 Calling SUEWS_update_SoilMoist...
 Calling NARP...
 Calling AnthropogenicEmissions...
 Calling OHM...
 Calling MeltHeat
 Calling LUMPS_cal_QHQE...
 Calling SUEWS_cal_WaterUse...
 Calling STAB_lumps...
 Calling AerodynamicResistance...
 Calling SurfaceResistance...
 Calling BoundaryLayerResistance...
 Calling Drainage...
 Calling ReDistributeWater...
 Calling evap_SUEWS and SoilStore...
 Calling SUEWS_cal_QH...
 Calling SUEWS_cal_HorizontalSoilWater...
 Calling SUEWS_cal_SoilMoist...
 Calling SUEWS_cal_Diagnostics...
 Calling SUEWS_cal_RoughnessParameters...
 Calling NARP_cal_SunPosition...
 Calling SUEWS_cal_DailyState...
 Calling LUMPS_cal_AtmMoist...
 Calling SUEWS_update_SoilMoist...
 Calling NARP...
 Calling AnthropogenicEmissions...
 Calling OHM...
 Calling MeltHeat
 Calling LUMPS_cal_QHQE...
 Calling SUEWS_cal_WaterUse...
 Calling STAB_lumps...
 Calling AerodynamicResistance...
 Calling SurfaceResistance...
 Calling BoundaryLayerResistance...
 Calling Drainage...
 Calling ReDistributeWater...
 Calling evap_SUEWS and SoilStore...
 Calling SUEWS_cal_QH...
 Calling SUEWS_cal_HorizontalSoilWater...
 Calling SUEWS_cal_SoilMoist...
 Calling SUEWS_cal_Diagnostics...
 Calling SUEWS_cal_RoughnessParameters...
 Calling NARP_cal_SunPosition...
 Calling SUEWS_cal_DailyState...
 Calling LUMPS_cal_AtmMoist...
 Calling SUEWS_update_SoilMoist...
 Calling NARP...
 Calling AnthropogenicEmissions...
 Calling OHM...
 Calling MeltHeat
 Calling LUMPS_cal_QHQE...
 Calling SUEWS_cal_WaterUse...
 Calling STAB_lumps...
 Calling AerodynamicResistance...
 Calling SurfaceResistance...
 Calling BoundaryLayerResistance...
 Calling Drainage...
 Calling ReDistributeWater...
 Calling evap_SUEWS and SoilStore...
 Calling SUEWS_cal_QH...
 Calling SUEWS_cal_HorizontalSoilWater...
 Calling SUEWS_cal_SoilMoist...
 Calling SUEWS_cal_Diagnostics...
 Calling SUEWS_cal_RoughnessParameters...
 Calling NARP_cal_SunPosition...
 Calling SUEWS_cal_DailyState...
 Calling LUMPS_cal_AtmMoist...
 Calling SUEWS_update_SoilMoist...
 Calling NARP...
 Calling AnthropogenicEmissions...
 Calling OHM...
 Calling MeltHeat
 Calling LUMPS_cal_QHQE...
 Calling SUEWS_cal_WaterUse...
 Calling STAB_lumps...
 Calling AerodynamicResistance...
 Calling SurfaceResistance...
 Calling BoundaryLayerResistance...
 Calling Drainage...
 Calling ReDistributeWater...
 Calling evap_SUEWS and SoilStore...
 Calling SUEWS_cal_QH...
 Calling SUEWS_cal_HorizontalSoilWater...
 Calling SUEWS_cal_SoilMoist...
 Calling SUEWS_cal_Diagnostics...
 Calling SUEWS_cal_RoughnessParameters...
 Calling NARP_cal_SunPosition...
 Calling SUEWS_cal_DailyState...
 Calling LUMPS_cal_AtmMoist...
 Calling SUEWS_update_SoilMoist...
 Calling NARP...
 Calling AnthropogenicEmissions...
 Calling OHM...
 Calling MeltHeat
 Calling LUMPS_cal_QHQE...
 Calling SUEWS_cal_WaterUse...
 Calling STAB_lumps...
 Calling AerodynamicResistance...
 Calling SurfaceResistance...
 Calling BoundaryLayerResistance...
 Calling Drainage...
 Calling ReDistributeWater...
 Calling evap_SUEWS and SoilStore...
 Calling SUEWS_cal_QH...
 Calling SUEWS_cal_HorizontalSoilWater...
 Calling SUEWS_cal_SoilMoist...
 Calling SUEWS_cal_Diagnostics...
 Calling SUEWS_cal_RoughnessParameters...
 Calling NARP_cal_SunPosition...
 Calling SUEWS_cal_DailyState...
 Calling LUMPS_cal_AtmMoist...
 Calling SUEWS_update_SoilMoist...
 Calling NARP...
 Calling AnthropogenicEmissions...
 Calling OHM...
 Calling MeltHeat
 Calling LUMPS_cal_QHQE...
 Calling SUEWS_cal_WaterUse...
 Calling STAB_lumps...
 Calling AerodynamicResistance...
 Calling SurfaceResistance...
 Calling BoundaryLayerResistance...
 Calling Drainage...
 Calling ReDistributeWater...
 Calling evap_SUEWS and SoilStore...
 Calling SUEWS_cal_QH...
 Calling SUEWS_cal_HorizontalSoilWater...
 Calling SUEWS_cal_SoilMoist...
 Calling SUEWS_cal_Diagnostics...
 Calling SUEWS_cal_RoughnessParameters...
 Calling NARP_cal_SunPosition...
 Calling SUEWS_cal_DailyState...
 Calling LUMPS_cal_AtmMoist...
 Calling SUEWS_update_SoilMoist...
 Calling NARP...
 Calling AnthropogenicEmissions...
 Calling OHM...
 Calling MeltHeat
 Calling LUMPS_cal_QHQE...
 Calling SUEWS_cal_WaterUse...
 Calling STAB_lumps...
 Calling AerodynamicResistance...
 Calling SurfaceResistance...
 Calling BoundaryLayerResistance...
 Calling Drainage...
 Calling ReDistributeWater...
 Calling evap_SUEWS and SoilStore...
 Calling SUEWS_cal_QH...
 Calling SUEWS_cal_HorizontalSoilWater...
 Calling SUEWS_cal_SoilMoist...
 Calling SUEWS_cal_Diagnostics...
 Calling SUEWS_cal_RoughnessParameters...
 Calling NARP_cal_SunPosition...
 Calling SUEWS_cal_DailyState...
 Calling LUMPS_cal_AtmMoist...
 Calling SUEWS_update_SoilMoist...
 Calling NARP...
 Calling AnthropogenicEmissions...
 Calling OHM...
 Calling MeltHeat
 Calling LUMPS_cal_QHQE...
 Calling SUEWS_cal_WaterUse...
 Calling STAB_lumps...
 Calling AerodynamicResistance...
 Calling SurfaceResistance...
 Calling BoundaryLayerResistance...
 Calling Drainage...
 Calling ReDistributeWater...
 Calling evap_SUEWS and SoilStore...
 Calling SUEWS_cal_QH...
 Calling SUEWS_cal_HorizontalSoilWater...
 Calling SUEWS_cal_SoilMoist...
 Calling SUEWS_cal_Diagnostics...
 Calling SUEWS_cal_RoughnessParameters...
 Calling NARP_cal_SunPosition...
 Calling SUEWS_cal_DailyState...
 Calling LUMPS_cal_AtmMoist...
 Calling SUEWS_update_SoilMoist...
 Calling NARP...
 Calling AnthropogenicEmissions...
 Calling OHM...
 Calling MeltHeat
 Calling LUMPS_cal_QHQE...
 Calling SUEWS_cal_WaterUse...
 Calling STAB_lumps...
 Calling AerodynamicResistance...
 Calling SurfaceResistance...
 Calling BoundaryLayerResistance...
 Calling Drainage...
 Calling ReDistributeWater...
 Calling evap_SUEWS and SoilStore...
 Calling SUEWS_cal_QH...
 Calling SUEWS_cal_HorizontalSoilWater...
 Calling SUEWS_cal_SoilMoist...
 Calling SUEWS_cal_Diagnostics...
 Calling SUEWS_cal_RoughnessParameters...
 Calling NARP_cal_SunPosition...
 Calling SUEWS_cal_DailyState...
 Calling LUMPS_cal_AtmMoist...
 Calling SUEWS_update_SoilMoist...
 Calling NARP...
 Calling AnthropogenicEmissions...
 Calling OHM...
 Calling MeltHeat
 Calling LUMPS_cal_QHQE...
 Calling SUEWS_cal_WaterUse...
 Calling STAB_lumps...
 Calling AerodynamicResistance...
 Calling SurfaceResistance...
 Calling BoundaryLayerResistance...
 Calling Drainage...
 Calling ReDistributeWater...
 Calling evap_SUEWS and SoilStore...
 Calling SUEWS_cal_QH...
 Calling SUEWS_cal_HorizontalSoilWater...
 Calling SUEWS_cal_SoilMoist...
 Calling SUEWS_cal_Diagnostics...
 Calling SUEWS_cal_RoughnessParameters...
 Calling NARP_cal_SunPosition...
 Calling SUEWS_cal_DailyState...
 Calling LUMPS_cal_AtmMoist...
 Calling SUEWS_update_SoilMoist...
 Calling NARP...
 Calling AnthropogenicEmissions...
 Calling OHM...
 Calling MeltHeat
 Calling LUMPS_cal_QHQE...
 Calling SUEWS_cal_WaterUse...
 Calling STAB_lumps...
 Calling AerodynamicResistance...
 Calling SurfaceResistance...
 Calling BoundaryLayerResistance...
 Calling Drainage...
 Calling ReDistributeWater...
 Calling evap_SUEWS and SoilStore...
 Calling SUEWS_cal_QH...
 Calling SUEWS_cal_HorizontalSoilWater...
 Calling SUEWS_cal_SoilMoist...
 Calling SUEWS_cal_Diagnostics...
 Calling SUEWS_cal_RoughnessParameters...
 Calling NARP_cal_SunPosition...
 Calling SUEWS_cal_DailyState...
 Calling LUMPS_cal_AtmMoist...
 Calling SUEWS_update_SoilMoist...
 Calling NARP...
 Calling AnthropogenicEmissions...
 Calling OHM...
 Calling MeltHeat
 Calling LUMPS_cal_QHQE...
 Calling SUEWS_cal_WaterUse...
 Calling STAB_lumps...
 Calling AerodynamicResistance...
 Calling SurfaceResistance...
 Calling BoundaryLayerResistance...
 Calling Drainage...
 Calling ReDistributeWater...
 Calling evap_SUEWS and SoilStore...
 Calling SUEWS_cal_QH...
 Calling SUEWS_cal_HorizontalSoilWater...
 Calling SUEWS_cal_SoilMoist...
 Calling SUEWS_cal_Diagnostics...
 Calling SUEWS_cal_RoughnessParameters...
 Calling NARP_cal_SunPosition...
 Calling SUEWS_cal_DailyState...
 Calling LUMPS_cal_AtmMoist...
 Calling SUEWS_update_SoilMoist...
 Calling NARP...
 Calling AnthropogenicEmissions...
 Calling OHM...
 Calling MeltHeat
 Calling LUMPS_cal_QHQE...
 Calling SUEWS_cal_WaterUse...
 Calling STAB_lumps...
 Calling AerodynamicResistance...
 Calling SurfaceResistance...
 Calling BoundaryLayerResistance...
 Calling Drainage...
 Calling ReDistributeWater...
 Calling evap_SUEWS and SoilStore...
 Calling SUEWS_cal_QH...
 Calling SUEWS_cal_HorizontalSoilWater...
 Calling SUEWS_cal_SoilMoist...
 Calling SUEWS_cal_Diagnostics...
 Calling SUEWS_cal_RoughnessParameters...
 Calling NARP_cal_SunPosition...
 Calling SUEWS_cal_DailyState...
 Calling LUMPS_cal_AtmMoist...
 Calling SUEWS_update_SoilMoist...
 Calling NARP...
 Calling AnthropogenicEmissions...
 Calling OHM...
 Calling MeltHeat
 Calling LUMPS_cal_QHQE...
 Calling SUEWS_cal_WaterUse...
 Calling STAB_lumps...
 Calling AerodynamicResistance...
 Calling SurfaceResistance...
 Calling BoundaryLayerResistance...
 Calling Drainage...
 Calling ReDistributeWater...
 Calling evap_SUEWS and SoilStore...
 Calling SUEWS_cal_QH...
 Calling SUEWS_cal_HorizontalSoilWater...
 Calling SUEWS_cal_SoilMoist...
 Calling SUEWS_cal_Diagnostics...
 Calling SUEWS_cal_RoughnessParameters...
 Calling NARP_cal_SunPosition...
 Calling SUEWS_cal_DailyState...
 Calling LUMPS_cal_AtmMoist...
 Calling SUEWS_update_SoilMoist...
 Calling NARP...
 Calling AnthropogenicEmissions...
 Calling OHM...
 Calling MeltHeat
 Calling LUMPS_cal_QHQE...
 Calling SUEWS_cal_WaterUse...
 Calling STAB_lumps...
 Calling AerodynamicResistance...
 Calling SurfaceResistance...
 Calling BoundaryLayerResistance...
 Calling Drainage...
 Calling ReDistributeWater...
 Calling evap_SUEWS and SoilStore...
 Calling SUEWS_cal_QH...
 Calling SUEWS_cal_HorizontalSoilWater...
 Calling SUEWS_cal_SoilMoist...
 Calling SUEWS_cal_Diagnostics...
 Calling SUEWS_cal_RoughnessParameters...
 Calling NARP_cal_SunPosition...
 Calling SUEWS_cal_DailyState...
 Calling LUMPS_cal_AtmMoist...
 Calling SUEWS_update_SoilMoist...
 Calling NARP...
 Calling AnthropogenicEmissions...
 Calling OHM...
 Calling MeltHeat
 Calling LUMPS_cal_QHQE...
 Calling SUEWS_cal_WaterUse...
 Calling STAB_lumps...
 Calling AerodynamicResistance...
 Calling SurfaceResistance...
 Calling BoundaryLayerResistance...
 Calling Drainage...
 Calling ReDistributeWater...
 Calling evap_SUEWS and SoilStore...
 Calling SUEWS_cal_QH...
 Calling SUEWS_cal_HorizontalSoilWater...
 Calling SUEWS_cal_SoilMoist...
 Calling SUEWS_cal_Diagnostics...
 Calling SUEWS_cal_RoughnessParameters...
 Calling NARP_cal_SunPosition...
 Calling SUEWS_cal_DailyState...
 Calling LUMPS_cal_AtmMoist...
 Calling SUEWS_update_SoilMoist...
 Calling NARP...
 Calling AnthropogenicEmissions...
 Calling OHM...
 Calling MeltHeat
 Calling LUMPS_cal_QHQE...
 Calling SUEWS_cal_WaterUse...
 Calling STAB_lumps...
 Calling AerodynamicResistance...
 Calling SurfaceResistance...
 Calling BoundaryLayerResistance...
 Calling Drainage...
 Calling ReDistributeWater...
 Calling evap_SUEWS and SoilStore...
 Calling SUEWS_cal_QH...
 Calling SUEWS_cal_HorizontalSoilWater...
 Calling SUEWS_cal_SoilMoist...
 Calling SUEWS_cal_Diagnostics...
 Calling SUEWS_cal_RoughnessParameters...
 Calling NARP_cal_SunPosition...
 Calling SUEWS_cal_DailyState...
 Calling LUMPS_cal_AtmMoist...
 Calling SUEWS_update_SoilMoist...
 Calling NARP...
 Calling AnthropogenicEmissions...
 Calling OHM...
 Calling MeltHeat
 Calling LUMPS_cal_QHQE...
 Calling SUEWS_cal_WaterUse...
 Calling STAB_lumps...
 Calling AerodynamicResistance...
 Calling SurfaceResistance...
 Calling BoundaryLayerResistance...
 Calling Drainage...
 Calling ReDistributeWater...
 Calling evap_SUEWS and SoilStore...
 Calling SUEWS_cal_QH...
 Calling SUEWS_cal_HorizontalSoilWater...
 Calling SUEWS_cal_SoilMoist...
 Calling SUEWS_cal_Diagnostics...
 Calling SUEWS_cal_RoughnessParameters...
 Calling NARP_cal_SunPosition...
 Calling SUEWS_cal_DailyState...
 Calling LUMPS_cal_AtmMoist...
 Calling SUEWS_update_SoilMoist...
 Calling NARP...
 Calling AnthropogenicEmissions...
 Calling OHM...
 Calling MeltHeat
 Calling LUMPS_cal_QHQE...
 Calling SUEWS_cal_WaterUse...
 Calling STAB_lumps...
 Calling AerodynamicResistance...
 Calling SurfaceResistance...
 Calling BoundaryLayerResistance...
 Calling Drainage...
 Calling ReDistributeWater...
 Calling evap_SUEWS and SoilStore...
 Calling SUEWS_cal_QH...
 Calling SUEWS_cal_HorizontalSoilWater...
 Calling SUEWS_cal_SoilMoist...
 Calling SUEWS_cal_Diagnostics...
 Calling SUEWS_cal_RoughnessParameters...
 Calling NARP_cal_SunPosition...
 Calling SUEWS_cal_DailyState...
 Calling LUMPS_cal_AtmMoist...
 Calling SUEWS_update_SoilMoist...
 Calling NARP...
 Calling AnthropogenicEmissions...
 Calling OHM...
 Calling MeltHeat
 Calling LUMPS_cal_QHQE...
 Calling SUEWS_cal_WaterUse...
 Calling STAB_lumps...
 Calling AerodynamicResistance...
 Calling SurfaceResistance...
 Calling BoundaryLayerResistance...
 Calling Drainage...
 Calling ReDistributeWater...
 Calling evap_SUEWS and SoilStore...
 Calling SUEWS_cal_QH...
 Calling SUEWS_cal_HorizontalSoilWater...
 Calling SUEWS_cal_SoilMoist...
 Calling SUEWS_cal_Diagnostics...
 Calling SUEWS_cal_RoughnessParameters...
 Calling NARP_cal_SunPosition...
 Calling SUEWS_cal_DailyState...
 Calling LUMPS_cal_AtmMoist...
 Calling SUEWS_update_SoilMoist...
 Calling NARP...
 Calling AnthropogenicEmissions...
 Calling OHM...
 Calling MeltHeat
 Calling LUMPS_cal_QHQE...
 Calling SUEWS_cal_WaterUse...
 Calling STAB_lumps...
 Calling AerodynamicResistance...
 Calling SurfaceResistance...
 Calling BoundaryLayerResistance...
 Calling Drainage...
 Calling ReDistributeWater...
 Calling evap_SUEWS and SoilStore...
 Calling SUEWS_cal_QH...
 Calling SUEWS_cal_HorizontalSoilWater...
 Calling SUEWS_cal_SoilMoist...
 Calling SUEWS_cal_Diagnostics...
Timing for main: time 2010-09-01_00:15:00 on domain   1:    0.01490 elapsed seconds
Timing for Writing wrfout_d01_2010-09-01_00:15:00 for domain        1:    0.00358 elapsed seconds
 year =         2010 day =          244 hour =            0 minute =           15
 Calling SUEWS_cal_RoughnessParameters...
 Calling NARP_cal_SunPosition...
 Calling SUEWS_cal_DailyState...
 Calling LUMPS_cal_AtmMoist...
 Calling SUEWS_update_SoilMoist...
 Calling NARP...
 Calling AnthropogenicEmissions...
 Calling OHM...
 Calling MeltHeat
 Calling LUMPS_cal_QHQE...
 Calling SUEWS_cal_WaterUse...
 Calling STAB_lumps...
 Calling AerodynamicResistance...
 Calling SurfaceResistance...
 Calling BoundaryLayerResistance...
 Calling Drainage...
 Calling ReDistributeWater...
 Calling evap_SUEWS and SoilStore...
 Calling SUEWS_cal_QH...
 Calling SUEWS_cal_HorizontalSoilWater...
 Calling SUEWS_cal_SoilMoist...
Note: The following floating-point exceptions are signalling: IEEE_UNDERFLOW_FLAG IEEE_DENORMAL
 Calling SUEWS_cal_Diagnostics...
 Calling SUEWS_cal_RoughnessParameters...
 Calling NARP_cal_SunPosition...
 Calling SUEWS_cal_DailyState...
 Calling LUMPS_cal_AtmMoist...
 Calling SUEWS_update_SoilMoist...
 Calling NARP...
 Calling AnthropogenicEmissions...
 Calling OHM...
 Calling MeltHeat
 Calling LUMPS_cal_QHQE...
 Calling SUEWS_cal_WaterUse...
 Calling STAB_lumps...
 Calling AerodynamicResistance...
 Calling SurfaceResistance...
 Calling BoundaryLayerResistance...
 Calling Drainage...
 Calling ReDistributeWater...
 Calling evap_SUEWS and SoilStore...
 >>> See problems.txt for serious issues in the run <<<
 ERROR! SUEWS run stopped.
 problem: SUEWS_store: soilmoist(is) < 0
 See problems.txt for more info.
