--- WARNING: traj_opt is zero, but num_traj is not zero; setting num_traj to zero.
--- NOTE: sst_update is 0, setting io_form_auxinput4 = 0 and auxinput4_interval = 0 for all domains
--- NOTE: grid_fdda is 0 for domain      1, setting gfdda interval and ending time to 0 for that domain.
--- NOTE: both grid_sfdda and pxlsm_soil_nudge are 0 for domain      1, setting sgfdda interval and ending time to 0 for that domain.
--- NOTE: obs_nudge_opt is 0 for domain      1, setting obs nudging interval and ending time to 0 for that domain.
--- NOTE: bl_pbl_physics /= 4, implies mfshconv must be 0, resetting
Need MYNN PBL for icloud_bl = 1, resetting to 0
--- NOTE: RRTMG radiation is not used, setting:  o3input=0 to avoid data pre-processing
*************************************
Configuring physics suite 'conus'

         mp_physics:      8
         cu_physics:      6
      ra_lw_physics:      4
      ra_sw_physics:      4
     bl_pbl_physics:      2
  sf_sfclay_physics:      2
 sf_surface_physics:      9*

(* = option overrides suite setting)
*************************************
--- NOTE: RRTMG radiation is in use, setting:  levsiz=59, alevsiz=12, no_src_types=6
--- NOTE: num_soil_layers has been set to      4
WRF V3.9.1.1 MODEL
DYNAMICS OPTION: Eulerian Mass Coordinate
   alloc_space_field: domain            1 ,               5885784  bytes allocated
  med_initialdata_input: calling input_input
Timing for processing wrfinput file (stream 0) for domain        1:    0.03403 elapsed seconds
Max map factor in domain 1 =  1.00. Scale the dt in the model accordingly.
INPUT LandUse = "MODIFIED_IGBP_MODIS_NOAH"
 LANDUSE TYPE = "MODIFIED_IGBP_MODIS_NOAH" FOUND          33  CATEGORIES           2  SEASONS WATER CATEGORY =           17  SNOW CATEGORY =           15
ThompMP: read qr_acr_qg.dat stead of computing
ThompMP: read qr_acr_qs.dat instead of computing
ThompMP: read freezeH2O.dat stead of computing
Timing for Writing wrfout_d01_2010-09-01_00:00:00 for domain        1:    0.23273 elapsed seconds
Timing for processing lateral boundary for domain        1:    0.00558 elapsed seconds
 Tile Strategy is not specified. Assuming 1D-Y
WRF TILE   1 IS      1 IE      6 JS      1 JE      6
WRF NUMBER OF TILES =   1
 year =         2010 day =          244 hour =            0 minute =            0
 >>> See warnings.txt for possible issues in the run <<<
 avkdn,kup,ldown,lup,tsurf
   502.26062011718750        22.785053242341966        308.26021989957263        491.69659309296799        32.961951277864770     
 ,qn1,qf,qs,qh,qeOut
   296.03917556489756        0.0000000000000000       -4296.6559640397827        3830.4361415492476        762.25899805543247     
 
 tsk =    306.11194517434916     
 avkdn,kup,ldown,lup,tsurf
   508.46514892578125        23.352295094203065        313.96630589082565        500.65855508510356        34.291745101833072     
 ,qn1,qf,qs,qh,qeOut
   298.42060655217267        0.0000000000000000       -1488.7783077256540        5779.6836967909139       -3992.4847825130864     
 
 tsk =    307.44173899831742     
 avkdn,kup,ldown,lup,tsurf
   514.08087158203125        37.621713946906631        312.08958537117303        495.84261568432964        33.831761794185958     
 ,qn1,qf,qs,qh,qeOut
   292.70615790685810        0.0000000000000000       -845.38490673093872        8307.1713347369805       -7169.0802700991844     
 
 tsk =    306.98175569067035     
 avkdn,kup,ldown,lup,tsurf
   522.82281494140625        45.481603560584055        310.20895044328410        492.53150173438530        33.467542160673744     
 ,qn1,qf,qs,qh,qeOut
   295.01861470417555        0.0000000000000000       -902.26132799481013       -933.85996084275155        2131.1399035417371     
 
 tsk =    306.61753605715813     
 avkdn,kup,ldown,lup,tsurf
   530.67816162109375        52.201715177972460        314.07659204027954        497.89224336892403        34.415474960540543     
 ,qn1,qf,qs,qh,qeOut
   294.66079388519694        0.0000000000000000       -41.035939391497386       -1437.3355313228851        1773.0322645995793     
 
 tsk =    307.56546885702494     
 avkdn,kup,ldown,lup,tsurf
   499.89370727539062        14.352785387835880        308.15981996499625        493.02177179326560        32.946389907760761     
 ,qn1,qf,qs,qh,qeOut
   300.67896648463250        0.0000000000000000       -4784.8018456821956        1596.9210600017855        3488.5597521650425     
 
 tsk =    306.09638380424514     
 avkdn,kup,ldown,lup,tsurf
   506.90621948242188        12.529210762225421        312.28257058454767        500.12412068957826        33.965579520857432     
 ,qn1,qf,qs,qh,qeOut
   306.53540835721708        0.0000000000000000       -4645.1762333789902        858.14874912366315        4093.5628926125441     
 
 tsk =    307.11557341734181     
 avkdn,kup,ldown,lup,tsurf
   515.19018554687500        31.876610431943810        312.16476462944979        496.99659256530958        33.895995997388425     
 ,qn1,qf,qs,qh,qeOut
   298.48173908846081        0.0000000000000000       -2272.7191894964340        455.03193610201686        2116.1689924828779     
 
 tsk =    307.04598989387279     
 avkdn,kup,ldown,lup,tsurf
   520.87750244140625        46.465579992153351        310.71476113984835        492.94588614733522        33.546317849242627     
 ,qn1,qf,qs,qh,qeOut
   292.18078359792446        0.0000000000000000       -12.850233328360492        578.12097506562759       -273.08995813934263     
 
 tsk =    306.69631174572703     
 avkdn,kup,ldown,lup,tsurf
   528.98278808593750        52.352536296940677        313.58035989450144        496.94607991880508        34.275283114430529     
 ,qn1,qf,qs,qh,qeOut
   293.26450752487909        0.0000000000000000        17.948549687615753       -1461.1299603577340        1736.4459181949974     
 
 tsk =    307.42527701091490     
 avkdn,kup,ldown,lup,tsurf
   497.92929077148438        32.491239986187935        308.53052833811898        490.02556538256096        32.842815155918885     
 ,qn1,qf,qs,qh,qeOut
   283.94300529126934        0.0000000000000000       -2099.7052076394621        745.52679302487081        1638.1214199058606     
 
 tsk =    305.99280905240323     
 avkdn,kup,ldown,lup,tsurf
   505.27542114257812        23.432820269875482        312.67144395267701        498.26994174130647        33.959606307146522     
 ,qn1,qf,qs,qh,qeOut
   296.24410146530693        0.0000000000000000       -3977.9014746693997        3287.6176250664962        986.52795106821043     
 
 tsk =    307.10960020363092     
 avkdn,kup,ldown,lup,tsurf
   512.85772705078125        47.637181577394344        312.46977332306602        493.98453712927403        33.841059353940530     
 ,qn1,qf,qs,qh,qeOut
   283.70576201866203        0.0000000000000000       -90.061993080488293        889.22155305587944       -515.45379795672909     
 
 tsk =    306.99105325042490     
 avkdn,kup,ldown,lup,tsurf
   518.99237060546875        48.235335742574833        312.17469644130125        494.56044356388367        33.844461701743064     
 ,qn1,qf,qs,qh,qeOut
   288.37133094391112        0.0000000000000000       -124.68261506493468       -122.41496349512323        535.46890950396903     
 
 tsk =    306.99445559822743     
 avkdn,kup,ldown,lup,tsurf
   527.26690673828125        52.726691459517042        314.18152905879657        497.71423030504195        34.404531543578116     
 ,qn1,qf,qs,qh,qeOut
   291.00751403251877        0.0000000000000000        94.389541137765264       -1494.8482926532429        1691.4662655479963     
 
 tsk =    307.55452544006249     
 avkdn,kup,ldown,lup,tsurf
   496.26126098632812        23.010362786741862        308.55007887138487        491.77783406840376        32.919352232478417     
 ,qn1,qf,qs,qh,qeOut
   290.02315237180437        0.0000000000000000       -98.202990001099536        25361.071164249042       -24972.845021876139     
 
 tsk =    306.06934612896282     
 avkdn,kup,ldown,lup,tsurf
   503.64541625976562        19.520746123593220        312.80077769257548        499.50570622288143        34.015455339336881     
 ,qn1,qf,qs,qh,qeOut
   297.41973200613501        0.0000000000000000       -3469.4916941824144        238.59031221234471        3528.3211139762047     
 
 tsk =    307.16544923582126     
 avkdn,kup,ldown,lup,tsurf
   511.62677001953125        13.077242187933145        314.01776653382763        503.47022780992540        34.445792742343713     
 ,qn1,qf,qs,qh,qeOut
   309.09707249076678        0.0000000000000000       -4068.5619721215157       -257.67009031559633        4635.3291349278788     
 
 tsk =    307.59578663882809     
 avkdn,kup,ldown,lup,tsurf
   516.99206542968750        45.441639206771711        313.80198694056168        497.42266723793881        34.217059931301378     
 ,qn1,qf,qs,qh,qeOut
   287.92977745533176        0.0000000000000000       -552.97679380691852       -1323.9298593607798        2164.8364306230301     
 
 tsk =    307.36705382778575     
 avkdn,kup,ldown,lup,tsurf
   525.30285644531250        52.530286427293504        315.05520326882476        498.76963309480510        34.565797599599762     
 ,qn1,qf,qs,qh,qeOut
   289.05814019203859        0.0000000000000000        93.556292146482548       -1501.3485824998406        1696.8504305453966     
 
 tsk =    307.71579149608414     
 avkdn,kup,ldown,lup,tsurf
   494.66067504882812        5.4185480041607388        308.84777382948567        495.85472613647261        33.115329660865811     
 ,qn1,qf,qs,qh,qeOut
   302.23514125011184        0.0000000000000000       -21.808245182906628        254.54018506862909        69.503201364389383     
 
 tsk =    306.26532355735020     
 avkdn,kup,ldown,lup,tsurf
   502.05813598632812        6.5830486062115607        312.57134369648566        501.90036475214316        34.056851233454069     
 ,qn1,qf,qs,qh,qeOut
   306.14609524924174        0.0000000000000000       -15.458636307318033        163.41472079278302        158.19001076377677     
 
 tsk =    307.20684512993842     
 avkdn,kup,ldown,lup,tsurf
   506.85122680664062        40.072736799455861        314.17665493838774        498.16646684961296        34.224262060371657     
 ,qn1,qf,qs,qh,qeOut
   282.78864734302209        0.0000000000000000       -1045.9992204882590       -928.24240631761427        2257.0302741488954     
 
 tsk =    307.37425595685602     
 avkdn,kup,ldown,lup,tsurf
   514.84271240234375        51.484272007409800        314.24248927532454        496.75024550026973        34.250150916624193     
 ,qn1,qf,qs,qh,qeOut
   280.85068416998871        0.0000000000000000        90.048060780411731       -1498.5186502389324        1689.3212736285093     
 
 tsk =    307.40014481310857     
 avkdn,kup,ldown,lup,tsurf
   522.96154785156250        52.296155564429682        314.76215770089078        498.11778928731195        34.464260075624452     
 ,qn1,qf,qs,qh,qeOut
   287.30976070071171        0.0000000000000000        92.808957070328702       -1500.6867305003595        1695.1875341307425     
 
 tsk =    307.61425397210883     
Timing for main: time 2010-09-01_00:05:00 on domain   1:    0.30730 elapsed seconds
Timing for Writing wrfout_d01_2010-09-01_00:05:00 for domain        1:    0.00471 elapsed seconds
 year =         2010 day =          244 hour =            0 minute =            5
 avkdn,kup,ldown,lup,tsurf
   502.26062011718750        22.785053242341966        308.40697021119894        491.91184365945946        32.995389606617394     
 ,qn1,qf,qs,qh,qeOut
   295.97067530675247        0.0000000000000000       -2511.8642829258552        2807.6447321865958       0.19022604601178408     
 
 tsk =    306.14538350310175     
 avkdn,kup,ldown,lup,tsurf
   508.46514892578125        23.352295094203065        314.16507938406079        500.95412124931511        34.337048989483456     
 ,qn1,qf,qs,qh,qeOut
   298.32381388165913        0.0000000000000000       -1552.0747033296122        1850.3083039262842        9.0213284987174569E-002
 
 tsk =    307.48704288596781     
 avkdn,kup,ldown,lup,tsurf
   514.08087158203125        37.621713946906631        312.27361658241472        496.11586821198279        33.873972318952887     
 ,qn1,qf,qs,qh,qeOut
   292.61693659725944        0.0000000000000000       -949.62794101215718        1242.1272683267259       0.11760928269060850     
 
 tsk =    307.02396621543727     
 avkdn,kup,ldown,lup,tsurf
   522.82281494140625        45.481603560584055        310.31734533290859        492.69123717342444        33.492343998108872     
 ,qn1,qf,qs,qh,qeOut
   294.96727414885544        0.0000000000000000       -723.59487467189354        1018.4725102295095        8.9638591239453447E-002
 
 tsk =    306.64233789459325     
 avkdn,kup,ldown,lup,tsurf
   530.67816162109375        52.201715177972460        314.11067624068147        497.93999216164468        34.422817770827351     
 ,qn1,qf,qs,qh,qeOut
   294.64712929282854        0.0000000000000000       -39.736506420751859        334.36430745400685        1.9328259573536892E-002
 
 tsk =    307.57281166731173     
 avkdn,kup,ldown,lup,tsurf
   499.89370727539062        14.352785387835880        308.30950788053690        493.24462018122182        32.980934541084885     
 ,qn1,qf,qs,qh,qeOut
   300.60580601155482        0.0000000000000000       -2517.4349819360664        2818.0407879476211        0.0000000000000000     
 
 tsk =    306.13092843756925     
 avkdn,kup,ldown,lup,tsurf
   506.90621948242188        12.529210762225421        311.60508436485793        499.22264109427056        33.827487042221144     
 ,qn1,qf,qs,qh,qeOut
   306.75940177439946        0.0000000000000000       -1375.0696539249298        1681.8290556993293        0.0000000000000000     
 
 tsk =    306.97748093870553     
 avkdn,kup,ldown,lup,tsurf
   515.19018554687500        31.876610431943810        312.11697435369734        496.92791436831976        33.885413969753984     
 ,qn1,qf,qs,qh,qeOut
   298.50262701016538        0.0000000000000000       -14.155603515751539        308.31820339250521        4.3400271334117289     
 
 tsk =    307.03540786623836     
 avkdn,kup,ldown,lup,tsurf
   520.87750244140625        46.465579992153351        311.05619827914762        493.50528664545379        33.633378822065794     
 ,qn1,qf,qs,qh,qeOut
   291.96282023342110        0.0000000000000000       -33.075930198502547        324.23203997978214       0.80671045214151638     
 
 tsk =    306.78337271855014     
 avkdn,kup,ldown,lup,tsurf
   528.98278808593750        52.352536296940677        313.61254596847323        496.99259567094492        34.282454656177734     
 ,qn1,qf,qs,qh,qeOut
   293.25017784578500        0.0000000000000000        26.143056368080707        267.06722048358677        3.9900994117559055E-002
 
 tsk =    307.43244855266209     
 avkdn,kup,ldown,lup,tsurf
   497.92929077148438        32.491239986187935        308.66803718051381        490.22976378648252        32.874636627179008     
 ,qn1,qf,qs,qh,qeOut
   283.87631572830185        0.0000000000000000       -629.30949159689192        913.11327135511544        7.2535970078314083E-002
 
 tsk =    306.02463052366340     
 avkdn,kup,ldown,lup,tsurf
   505.27542114257812        23.432820269875482        312.35084254259044        497.79386521165179        33.886325391898332     
 ,qn1,qf,qs,qh,qeOut
   296.39957658550958        0.0000000000000000       -2041.3150568641777        2337.4762730695475       0.23836038013986016     
 
 tsk =    307.03631928838269     
 avkdn,kup,ldown,lup,tsurf
   512.85772705078125        47.637181577394344        311.74577168272225        493.12399184928131        33.708726863696036     
 ,qn1,qf,qs,qh,qeOut
   283.84230567554744        0.0000000000000000       -127.79244979164901        411.56851189509001        6.6243572106412074E-002
 
 tsk =    306.85872076018040     
 avkdn,kup,ldown,lup,tsurf
   518.99237060546875        48.235335742574833        312.48062766831504        495.04735171180226        33.920009682121446     
 ,qn1,qf,qs,qh,qeOut
   288.19035403890854        0.0000000000000000       -156.97831054139314        445.14682008835837        2.1844491943328881E-002
 
 tsk =    307.07000357860579     
 avkdn,kup,ldown,lup,tsurf
   527.26690673828125        52.726691459517042        314.18310594921542        497.71538848481708        34.404703722734894     
 ,qn1,qf,qs,qh,qeOut
   291.00793274316248        0.0000000000000000        84.121295674572863        206.88663706858961        0.0000000000000000     
 
 tsk =    307.55469761921927     
 avkdn,kup,ldown,lup,tsurf
   496.26126098632812        23.010362786741862        308.70404415976287        492.00403715039027        32.954486308770242     
 ,qn1,qf,qs,qh,qeOut
   289.95091457998819        0.0000000000000000       -121.14580560225374        411.07243026762046        2.4289914621469594E-002
 
 tsk =    306.10448020525462     
 avkdn,kup,ldown,lup,tsurf
   503.64541625976562        19.520746123593220        314.82751360223642        501.76039557610841        34.358864082201116     
 ,qn1,qf,qs,qh,qeOut
   297.19177853873862        0.0000000000000000       -297.46311988376954        587.94577357556182        6.7091248469463833     
 
 tsk =    307.50885797868551     
 avkdn,kup,ldown,lup,tsurf
   511.62677001953125        13.077242187933145        313.72421574267497        503.11375609223899        34.391566468796725     
 ,qn1,qf,qs,qh,qeOut
   309.15999341519023        0.0000000000000000       -415.71822752189297        718.17707357868437        6.7011473583988161     
 
 tsk =    307.54156036528110     
 avkdn,kup,ldown,lup,tsurf
   516.99206542968750        45.441639206771711        313.82395495473520        497.45778685051977        34.222486725762835     
 ,qn1,qf,qs,qh,qeOut
   287.91662585775811        0.0000000000000000       -35.046996982869516        322.05885177771137       0.90477106291626164     
 
 tsk =    307.37248062224722     
 avkdn,kup,ldown,lup,tsurf
   525.30285644531250        52.530286427293504        315.01067687015581        498.70504725474325        34.555864943269512     
 ,qn1,qf,qs,qh,qeOut
   289.07819963343150        0.0000000000000000        83.567448883986927        205.51075074944458        0.0000000000000000     
 
 tsk =    307.70585883975389     
 avkdn,kup,ldown,lup,tsurf
   494.66067504882812        5.4185480041607388        308.99375109369907        496.06943371293784        33.148448947031575     
 ,qn1,qf,qs,qh,qeOut
   302.16641093177611        0.0000000000000000       -37.318127451959143        339.47237607480042        1.2162308934864176E-002
 
 tsk =    306.29844284351594     
 avkdn,kup,ldown,lup,tsurf
   502.05813598632812        6.5830486062115607        312.64351239226420        502.00782282577774        34.073280914183741     
 ,qn1,qf,qs,qh,qeOut
   306.11080587394815        0.0000000000000000       -144.78731529371362        450.78864501704209       0.10947615061967085     
 
 tsk =    307.22327481066810     
 avkdn,kup,ldown,lup,tsurf
   506.85122680664062        40.072736799455861        314.19847500933389        498.19984769233008        34.229406307291626     
 ,qn1,qf,qs,qh,qeOut
   282.77708657043382        0.0000000000000000       -188.18143928777815        470.84161193568252       0.11691392252948271     
 
 tsk =    307.37940020377602     
 avkdn,kup,ldown,lup,tsurf
   514.84271240234375        51.484272007409800        314.22710590634642        496.72897184694273        34.246874987263936     
 ,qn1,qf,qs,qh,qeOut
   280.85657445433765        0.0000000000000000        81.207785417635165        199.64878903670248        0.0000000000000000     
 
 tsk =    307.39686888374831     
 avkdn,kup,ldown,lup,tsurf
   522.96154785156250        52.296155564429682        314.69165111080434        498.01503882239433        34.448439335652836     
 ,qn1,qf,qs,qh,qeOut
   287.34200457554277        0.0000000000000000        83.069148857007107        204.27285571853565        0.0000000000000000     
 
 tsk =    307.59843323213721     
Timing for main: time 2010-09-01_00:10:00 on domain   1:    0.02058 elapsed seconds
Timing for Writing wrfout_d01_2010-09-01_00:10:00 for domain        1:    0.00591 elapsed seconds
 year =         2010 day =          244 hour =            0 minute =           10
 avkdn,kup,ldown,lup,tsurf
   502.26062011718750        22.785053242341966                            NaN                       NaN   33.028828882131990     
 ,qn1,qf,qs,qh,qeOut
                       NaN   0.0000000000000000       -999.00000000000000                            NaN                       NaN
 
 tsk =    306.17882277861634     
 avkdn,kup,ldown,lup,tsurf
   508.46514892578125        23.352295094203065                            NaN                       NaN   34.382440672929548     
 ,qn1,qf,qs,qh,qeOut
                       NaN   0.0000000000000000       -999.00000000000000                            NaN                       NaN
 
 tsk =    307.53243456941391     
 avkdn,kup,ldown,lup,tsurf
   514.08087158203125        37.621713946906631                            NaN                       NaN   33.916213029477582     
 ,qn1,qf,qs,qh,qeOut
                       NaN   0.0000000000000000       -999.00000000000000                            NaN                       NaN
 
 tsk =    307.06620692596198     
 avkdn,kup,ldown,lup,tsurf
   522.82281494140625        45.481603560584055                            NaN                       NaN   33.519096160129273     
 ,qn1,qf,qs,qh,qeOut
                       NaN   0.0000000000000000       -999.00000000000000                            NaN                       NaN
 
 tsk =    306.66909005661364     
 avkdn,kup,ldown,lup,tsurf
   530.67816162109375        52.201715177972460                            NaN                       NaN   34.428124126783182     
 ,qn1,qf,qs,qh,qeOut
                       NaN   0.0000000000000000       -999.00000000000000                            NaN                       NaN
 
 tsk =    307.57811802326756     
 avkdn,kup,ldown,lup,tsurf
   499.89370727539062        14.352785387835880                            NaN                       NaN   33.015480190884247     
 ,qn1,qf,qs,qh,qeOut
                       NaN   0.0000000000000000       -999.00000000000000                            NaN                       NaN
 
 tsk =    306.16547408736864     
 avkdn,kup,ldown,lup,tsurf
   506.90621948242188        12.529210762225421                            NaN                       NaN                       NaN
 ,qn1,qf,qs,qh,qeOut
                       NaN   0.0000000000000000       -999.00000000000000                            NaN                       NaN
 
 tsk =                        NaN
 avkdn,kup,ldown,lup,tsurf
   515.19018554687500        31.876610431943810                            NaN                       NaN                       NaN
 ,qn1,qf,qs,qh,qeOut
                       NaN   0.0000000000000000       -999.00000000000000                            NaN                       NaN
 
 tsk =                        NaN
 avkdn,kup,ldown,lup,tsurf
   520.87750244140625        46.465579992153351                            NaN                       NaN                       NaN
 ,qn1,qf,qs,qh,qeOut
                       NaN   0.0000000000000000       -999.00000000000000                            NaN                       NaN
 
 tsk =                        NaN
 avkdn,kup,ldown,lup,tsurf
   528.98278808593750        52.352536296940677                            NaN                       NaN   34.289683613944725     
 ,qn1,qf,qs,qh,qeOut
                       NaN   0.0000000000000000       -999.00000000000000                            NaN                       NaN
 
 tsk =    307.43967751042908     
 avkdn,kup,ldown,lup,tsurf
   497.92929077148438        32.491239986187935                            NaN                       NaN   32.908440677044403     
 ,qn1,qf,qs,qh,qeOut
                       NaN   0.0000000000000000       -999.00000000000000                            NaN                       NaN
 
 tsk =    306.05843457352876     
 avkdn,kup,ldown,lup,tsurf
   505.27542114257812        23.432820269875482                            NaN                       NaN                       NaN
 ,qn1,qf,qs,qh,qeOut
                       NaN   0.0000000000000000       -999.00000000000000                            NaN                       NaN
 
 tsk =                        NaN
 avkdn,kup,ldown,lup,tsurf
   512.85772705078125        47.637181577394344                            NaN                       NaN                       NaN
 ,qn1,qf,qs,qh,qeOut
                       NaN   0.0000000000000000       -999.00000000000000                            NaN                       NaN
 
 tsk =                        NaN
 avkdn,kup,ldown,lup,tsurf
   518.99237060546875        48.235335742574833                            NaN                       NaN                       NaN
 ,qn1,qf,qs,qh,qeOut
                       NaN   0.0000000000000000       -999.00000000000000                            NaN                       NaN
 
 tsk =                        NaN
 avkdn,kup,ldown,lup,tsurf
   527.26690673828125        52.726691459517042                            NaN                       NaN   34.404818508853168     
 ,qn1,qf,qs,qh,qeOut
                       NaN   0.0000000000000000       -999.00000000000000                            NaN                       NaN
 
 tsk =    307.55481240533754     
 avkdn,kup,ldown,lup,tsurf
   496.26126098632812        23.010362786741862                            NaN                       NaN   32.989592708688683     
 ,qn1,qf,qs,qh,qeOut
                       NaN   0.0000000000000000       -999.00000000000000                            NaN                       NaN
 
 tsk =    306.13958660517306     
 avkdn,kup,ldown,lup,tsurf
   503.64541625976562        19.520746123593220                            NaN                       NaN                       NaN
 ,qn1,qf,qs,qh,qeOut
                       NaN   0.0000000000000000       -999.00000000000000                            NaN                       NaN
 
 tsk =                        NaN
 avkdn,kup,ldown,lup,tsurf
   511.62677001953125        13.077242187933145                            NaN                       NaN                       NaN
 ,qn1,qf,qs,qh,qeOut
                       NaN   0.0000000000000000       -999.00000000000000                            NaN                       NaN
 
 tsk =                        NaN
 avkdn,kup,ldown,lup,tsurf
   516.99206542968750        45.441639206771711                            NaN                       NaN                       NaN
 ,qn1,qf,qs,qh,qeOut
                       NaN   0.0000000000000000       -999.00000000000000                            NaN                       NaN
 
 tsk =                        NaN
 avkdn,kup,ldown,lup,tsurf
   525.30285644531250        52.530286427293504                            NaN                       NaN   34.545932368663557     
 ,qn1,qf,qs,qh,qeOut
                       NaN   0.0000000000000000       -999.00000000000000                            NaN                       NaN
 
 tsk =    307.69592626514793     
 avkdn,kup,ldown,lup,tsurf
   494.66067504882812        5.4185480041607388                            NaN                       NaN   33.177611893723714     
 ,qn1,qf,qs,qh,qeOut
                       NaN   0.0000000000000000       -999.00000000000000                            NaN                       NaN
 
 tsk =    306.32760579020811     
 avkdn,kup,ldown,lup,tsurf
   502.05813598632812        6.5830486062115607                            NaN                       NaN   34.089682149657214     
 ,qn1,qf,qs,qh,qeOut
                       NaN   0.0000000000000000       -999.00000000000000                            NaN                       NaN
 
 tsk =    307.23967604614160     
 avkdn,kup,ldown,lup,tsurf
   506.85122680664062        40.072736799455861                            NaN                       NaN   34.234493097761913     
 ,qn1,qf,qs,qh,qeOut
                       NaN   0.0000000000000000       -999.00000000000000                            NaN                       NaN
 
 tsk =    307.38448699424629     
 avkdn,kup,ldown,lup,tsurf
   514.84271240234375        51.484272007409800                            NaN                       NaN   34.243541594435044     
 ,qn1,qf,qs,qh,qeOut
                       NaN   0.0000000000000000       -999.00000000000000                            NaN                       NaN
 
 tsk =    307.39353549091942     
 avkdn,kup,ldown,lup,tsurf
   522.96154785156250        52.296155564429682                            NaN                       NaN   34.434599946781475     
 ,qn1,qf,qs,qh,qeOut
                       NaN   0.0000000000000000       -999.00000000000000                            NaN                       NaN
 
 tsk =    307.58459384326585     
Timing for main: time 2010-09-01_00:15:00 on domain   1:    0.18274 elapsed seconds
Timing for Writing wrfout_d01_2010-09-01_00:15:00 for domain        1:    0.00725 elapsed seconds
 year =         2010 day =          244 hour =            0 minute =           15
 avkdn,kup,ldown,lup,tsurf
   502.26062011718750        22.785053242341966                            NaN                       NaN   33.062297783751106     
 ,qn1,qf,qs,qh,qeOut
                       NaN   0.0000000000000000       -999.00000000000000                            NaN                       NaN
 
 tsk =    306.21229168023547     
 avkdn,kup,ldown,lup,tsurf
   508.46514892578125        23.352295094203065                            NaN                       NaN   34.427805383835299     
 ,qn1,qf,qs,qh,qeOut
                       NaN   0.0000000000000000       -999.00000000000000                            NaN                       NaN
 
 tsk =    307.57779928031965     
 avkdn,kup,ldown,lup,tsurf
   514.08087158203125        37.621713946906631                            NaN                       NaN   33.958455230154513     
 ,qn1,qf,qs,qh,qeOut
                       NaN   0.0000000000000000       -999.00000000000000                            NaN                       NaN
 
 tsk =    307.10844912663890     
 avkdn,kup,ldown,lup,tsurf
   522.82281494140625        45.481603560584055                            NaN                       NaN   33.545820254533837     
 ,qn1,qf,qs,qh,qeOut
                       NaN   0.0000000000000000       -999.00000000000000                            NaN                       NaN
 
 tsk =    306.69581415101823     
 avkdn,kup,ldown,lup,tsurf
   530.67816162109375        52.201715177972460                            NaN                       NaN   34.431451367454358     
 ,qn1,qf,qs,qh,qeOut
                       NaN   0.0000000000000000       -999.00000000000000                            NaN                       NaN
 
 tsk =    307.58144526393875     
 avkdn,kup,ldown,lup,tsurf
   499.89370727539062        14.352785387835880                            NaN                       NaN   33.050055526459367     
 ,qn1,qf,qs,qh,qeOut
                       NaN   0.0000000000000000       -999.00000000000000                            NaN                       NaN
 
 tsk =    306.20004942294372     
 avkdn,kup,ldown,lup,tsurf
   506.90621948242188        12.529210762225421                            NaN                       NaN                       NaN
 ,qn1,qf,qs,qh,qeOut
                       NaN   0.0000000000000000       -999.00000000000000                            NaN                       NaN
 
 tsk =                        NaN
 avkdn,kup,ldown,lup,tsurf
   515.19018554687500        31.876610431943810                            NaN                       NaN                       NaN
 ,qn1,qf,qs,qh,qeOut
                       NaN   0.0000000000000000       -999.00000000000000                            NaN                       NaN
 
 tsk =                        NaN
 avkdn,kup,ldown,lup,tsurf
   520.87750244140625        46.465579992153351                            NaN                       NaN                       NaN
 ,qn1,qf,qs,qh,qeOut
                       NaN   0.0000000000000000       -999.00000000000000                            NaN                       NaN
 
 tsk =                        NaN
 avkdn,kup,ldown,lup,tsurf
   528.98278808593750        52.352536296940677                            NaN                       NaN   34.296826555765684     
 ,qn1,qf,qs,qh,qeOut
                       NaN   0.0000000000000000       -999.00000000000000                            NaN                       NaN
 
 tsk =    307.44682045225005     
 avkdn,kup,ldown,lup,tsurf
   497.92929077148438        32.491239986187935                            NaN                       NaN   32.942274392401529     
 ,qn1,qf,qs,qh,qeOut
                       NaN   0.0000000000000000       -999.00000000000000                            NaN                       NaN
 
 tsk =    306.09226828888592     
 avkdn,kup,ldown,lup,tsurf
   505.27542114257812        23.432820269875482                            NaN                       NaN                       NaN
 ,qn1,qf,qs,qh,qeOut
                       NaN   0.0000000000000000       -999.00000000000000                            NaN                       NaN
 
 tsk =                        NaN
 avkdn,kup,ldown,lup,tsurf
   512.85772705078125        47.637181577394344                            NaN                       NaN                       NaN
 ,qn1,qf,qs,qh,qeOut
                       NaN   0.0000000000000000       -999.00000000000000                            NaN                       NaN
 
 tsk =                        NaN
 avkdn,kup,ldown,lup,tsurf
   518.99237060546875        48.235335742574833                            NaN                       NaN                       NaN
 ,qn1,qf,qs,qh,qeOut
                       NaN   0.0000000000000000       -999.00000000000000                            NaN                       NaN
 
 tsk =                        NaN
 avkdn,kup,ldown,lup,tsurf
   527.26690673828125        52.726691459517042                            NaN                       NaN   34.405019384586524     
 ,qn1,qf,qs,qh,qeOut
                       NaN   0.0000000000000000       -999.00000000000000                            NaN                       NaN
 
 tsk =    307.55501328107090     
 avkdn,kup,ldown,lup,tsurf
   496.26126098632812        23.010362786741862                            NaN                       NaN   33.024786254790214     
 ,qn1,qf,qs,qh,qeOut
                       NaN   0.0000000000000000       -999.00000000000000                            NaN                       NaN
 
 tsk =    306.17478015127460     
 avkdn,kup,ldown,lup,tsurf
   503.64541625976562        19.520746123593220                            NaN                       NaN                       NaN
 ,qn1,qf,qs,qh,qeOut
                       NaN   0.0000000000000000       -999.00000000000000                            NaN                       NaN
 
 tsk =                        NaN
 avkdn,kup,ldown,lup,tsurf
   511.62677001953125        13.077242187933145                            NaN                       NaN                       NaN
 ,qn1,qf,qs,qh,qeOut
                       NaN   0.0000000000000000       -999.00000000000000                            NaN                       NaN
 
 tsk =                        NaN
 avkdn,kup,ldown,lup,tsurf
   516.99206542968750        45.441639206771711                            NaN                       NaN                       NaN
 ,qn1,qf,qs,qh,qeOut
                       NaN   0.0000000000000000       -999.00000000000000                            NaN                       NaN
 
 tsk =                        NaN
 avkdn,kup,ldown,lup,tsurf
   525.30285644531250        52.530286427293504                            NaN                       NaN   34.535971169286370     
 ,qn1,qf,qs,qh,qeOut
                       NaN   0.0000000000000000       -999.00000000000000                            NaN                       NaN
 
 tsk =    307.68596506577074     
 avkdn,kup,ldown,lup,tsurf
   494.66067504882812        5.4185480041607388                            NaN                       NaN   33.208782919767764     
 ,qn1,qf,qs,qh,qeOut
                       NaN   0.0000000000000000       -999.00000000000000                            NaN                       NaN
 
 tsk =    306.35877681625215     
 avkdn,kup,ldown,lup,tsurf
   502.05813598632812        6.5830486062115607                            NaN                       NaN   34.106083612707010     
 ,qn1,qf,qs,qh,qeOut
                       NaN   0.0000000000000000       -999.00000000000000                            NaN                       NaN
 
 tsk =    307.25607750919141     
 avkdn,kup,ldown,lup,tsurf
   506.85122680664062        40.072736799455861                            NaN                       NaN   34.239608648389115     
 ,qn1,qf,qs,qh,qeOut
                       NaN   0.0000000000000000       -999.00000000000000                            NaN                       NaN
Note: The following floating-point exceptions are signalling: IEEE_INVALID_FLAG IEEE_OVERFLOW_FLAG IEEE_UNDERFLOW_FLAG IEEE_DENORMAL
 
 tsk =    307.38960254487347     
 avkdn,kup,ldown,lup,tsurf
   514.84271240234375        51.484272007409800                            NaN                       NaN   34.240294418747908     
 ,qn1,qf,qs,qh,qeOut
                       NaN   0.0000000000000000       -999.00000000000000                            NaN                       NaN
 
 tsk =    307.39028831523228     
 avkdn,kup,ldown,lup,tsurf
   522.96154785156250        52.296155564429682                            NaN                       NaN   34.420789428063415     
 ,qn1,qf,qs,qh,qeOut
                       NaN   0.0000000000000000       -999.00000000000000                            NaN                       NaN
 
 tsk =    307.57078332454779     
Timing for main: time 2010-09-01_00:20:00 on domain   1:    0.15916 elapsed seconds
Timing for Writing wrfout_d01_2010-09-01_00:20:00 for domain        1:    0.00881 elapsed seconds
 year =         2010 day =          244 hour =            0 minute =           20
 avkdn,kup,ldown,lup,tsurf
   502.26062011718750        22.785053242341966                            NaN                       NaN   33.095738952104057     
 ,qn1,qf,qs,qh,qeOut
                       NaN   0.0000000000000000       -999.00000000000000                            NaN                       NaN
 
 tsk =    306.24573284858843     
 avkdn,kup,ldown,lup,tsurf
   508.46514892578125        23.352295094203065                            NaN                       NaN   34.471134447621409     
 ,qn1,qf,qs,qh,qeOut
                       NaN   0.0000000000000000       -999.00000000000000                            NaN                       NaN
 
 tsk =    307.62112834410578     
 avkdn,kup,ldown,lup,tsurf
   514.08087158203125        37.621713946906631                            NaN                       NaN   34.000670221330068     
 ,qn1,qf,qs,qh,qeOut
                       NaN   0.0000000000000000       -999.00000000000000                            NaN                       NaN
 
 tsk =    307.15066411781447     
 avkdn,kup,ldown,lup,tsurf
   522.82281494140625        45.481603560584055                            NaN                       NaN   33.572688328497037     
 ,qn1,qf,qs,qh,qeOut
                       NaN   0.0000000000000000       -999.00000000000000                            NaN                       NaN
 
 tsk =    306.72268222498144     
 avkdn,kup,ldown,lup,tsurf
   530.67816162109375        52.201715177972460                            NaN                       NaN   34.438765593015006     
 ,qn1,qf,qs,qh,qeOut
                       NaN   0.0000000000000000       -999.00000000000000                            NaN                       NaN
 
 tsk =    307.58875948949935     
 >>> See problems.txt for serious issues in the run <<<
 ERROR! SUEWS run stopped.
 problem: SUEWS_Calculations: total SoilState < 0 (just added surface is)
 See problems.txt for more info.
