--- WARNING: traj_opt is zero, but num_traj is not zero; setting num_traj to zero.
--- NOTE: sst_update is 0, setting io_form_auxinput4 = 0 and auxinput4_interval = 0 for all domains
--- NOTE: grid_fdda is 0 for domain      1, setting gfdda interval and ending time to 0 for that domain.
--- NOTE: both grid_sfdda and pxlsm_soil_nudge are 0 for domain      1, setting sgfdda interval and ending time to 0 for that domain.
--- NOTE: obs_nudge_opt is 0 for domain      1, setting obs nudging interval and ending time to 0 for that domain.
--- NOTE: bl_pbl_physics /= 4, implies mfshconv must be 0, resetting
Need MYNN PBL for icloud_bl = 1, resetting to 0
--- NOTE: RRTMG radiation is not used, setting:  o3input=0 to avoid data pre-processing
*************************************
Configuring physics suite 'conus'

         mp_physics:      8
         cu_physics:      6
      ra_lw_physics:      4
      ra_sw_physics:      4
     bl_pbl_physics:      2
  sf_sfclay_physics:      2
 sf_surface_physics:      9*

(* = option overrides suite setting)
*************************************
--- NOTE: RRTMG radiation is in use, setting:  levsiz=59, alevsiz=12, no_src_types=6
--- NOTE: num_soil_layers has been set to      4
WRF V3.9.1.1 MODEL
DYNAMICS OPTION: Eulerian Mass Coordinate
   alloc_space_field: domain            1 ,               5885784  bytes allocated
  med_initialdata_input: calling input_input
Timing for processing wrfinput file (stream 0) for domain        1:    0.00965 elapsed seconds
Max map factor in domain 1 =  1.00. Scale the dt in the model accordingly.
INPUT LandUse = "MODIFIED_IGBP_MODIS_NOAH"
 LANDUSE TYPE = "MODIFIED_IGBP_MODIS_NOAH" FOUND          33  CATEGORIES           2  SEASONS WATER CATEGORY =           17  SNOW CATEGORY =           15
ThompMP: read qr_acr_qg.dat stead of computing
ThompMP: read qr_acr_qs.dat instead of computing
ThompMP: read freezeH2O.dat stead of computing
Timing for Writing wrfout_d01_2010-09-01_00:00:00 for domain        1:    0.23420 elapsed seconds
Timing for processing lateral boundary for domain        1:    0.00333 elapsed seconds
 Tile Strategy is not specified. Assuming 1D-Y
WRF TILE   1 IS      1 IE      6 JS      1 JE      6
WRF NUMBER OF TILES =   1
 year =         2010 day =          244 hour =            0 minute =            0
 soilmoist   0.0000000000000000        0.0000000000000000        0.0000000000000000        0.0000000000000000        0.0000000000000000        4.8786785919219255E-004   0.0000000000000000     
 state   0.0000000000000000        0.0000000000000000        0.0000000000000000        0.0000000000000000        0.0000000000000000        0.0000000000000000        0.0000000000000000     
 soilmoist   150.00000000000000        150.00000000000000        150.00000000000000        150.00000000000000        150.00000000000000        150.00000000000000        0.0000000000000000     
 state  0.10000000149011612       0.10000000149011612       0.15000000596046448       0.15000000596046448       0.15000000596046448       0.15000000596046448        20000.000000000000     
 Temp_C   26.850006103515625     
 QV1D   1.00000005E-03
 Press_hPa   1013.0000000000000     
 T1D   300.000000    
 avRh   4.6088495254516602     
 >>> See warnings.txt for possible issues in the run <<<
 avkdn,kup,ldown,lup,tsurf
   502.26062011718750        22.785053242341966        319.89623947467283        493.08314315162289        33.121121602001324     
 ,qn1,qf,qs,qh,qeOut
   306.28864482125772        0.0000000000000000       -2595.4347579024452        2136.6179723936007        765.10543033010208     
 
 HFX =    2136.6179723936007      LH =    765.10543033010208     
 after
 HFX =    50.0000000     LH =    60.0000000    
 
 Temp_C   26.850006103515625     
 QV1D   1.00000005E-03
 Press_hPa   1013.0000000000000     
 T1D   300.000000    
 avRh   4.6088495254516602     
 avkdn,kup,ldown,lup,tsurf
   508.46514892578125        23.352295094203065        319.89623947467283        493.79645087442060        33.182267735840298     
 ,qn1,qf,qs,qh,qeOut
   311.21264436050956        0.0000000000000000       -2276.3556528983731        1182.8357920132355        1404.7325052456472     
 
 Temp_C   26.850006103515625     
 QV1D   1.00000005E-03
 Press_hPa   1013.0000000000000     
 T1D   300.000000    
 avRh   4.6088495254516602     
 avkdn,kup,ldown,lup,tsurf
   514.08087158203125        37.621713946906631        319.89623947467283        491.77929068781435        33.133482225893445     
 ,qn1,qf,qs,qh,qeOut
   304.57613729587604        0.0000000000000000       -1014.4224564594662       -386.67497920122878        1705.6735729565710     
 
 Temp_C   26.850006103515625     
 QV1D   1.00000005E-03
 Press_hPa   1013.0000000000000     
 T1D   300.000000    
 avRh   4.6088495254516602     
 avkdn,kup,ldown,lup,tsurf
   522.82281494140625        45.481603560584055        319.89623947467283        491.16724173909358        33.177815134009478     
 ,qn1,qf,qs,qh,qeOut
   306.07016320306963        0.0000000000000000       -200.62985008224439       -1088.0059366601226        1594.7059499454367     
 
 Temp_C   26.850006103515625     
 QV1D   1.00000005E-03
 Press_hPa   1013.0000000000000     
 T1D   300.000000    
 avRh   4.6088495254516602     
 avkdn,kup,ldown,lup,tsurf
   530.67816162109375        52.201715177972460        319.89623947467283        490.71891256013447        33.219177838004150     
 ,qn1,qf,qs,qh,qeOut
   307.65377211991091        0.0000000000000000        64.359968908419361       -1370.2264846954747        1613.5202879069661     
 
 Temp_C   26.850006103515625     
 QV1D   1.00000005E-03
 Press_hPa   1013.0000000000000     
 T1D   300.000000    
 avRh   4.6088495254516602     
 avkdn,kup,ldown,lup,tsurf
   499.89370727539062        14.352785387835880        319.89623947467283        494.62944129697354        33.152698083277933     
 ,qn1,qf,qs,qh,qeOut
   310.80771643868189        0.0000000000000000       -2442.9549618166629        1712.0102408962262        1041.7524373591186     
 
 Temp_C   26.850006103515625     
 QV1D   1.00000005E-03
 Press_hPa   1013.0000000000000     
 T1D   300.000000    
 avRh   4.6088495254516602     
 avkdn,kup,ldown,lup,tsurf
   506.90621948242188        12.529210762225421        319.89623947467283        495.70140626526899        33.247178300015847     
 ,qn1,qf,qs,qh,qeOut
   318.57179120454634        0.0000000000000000       -3593.0648770217413        2923.2426078215731        988.39406040471454     
 
 Temp_C   26.850006103515625     
 QV1D   1.00000005E-03
 Press_hPa   1013.0000000000000     
 T1D   300.000000    
 avRh   4.6088495254516602     
 avkdn,kup,ldown,lup,tsurf
   515.19018554687500        31.876610431943810        319.89623947467283        492.86070633865279        33.194575783055839     
 ,qn1,qf,qs,qh,qeOut
   310.34910008473531        0.0000000000000000       -2857.3306572173760        1517.9378407188685        1649.7419165832428     
 
 Temp_C   26.850006103515625     
 QV1D   1.00000005E-03
 Press_hPa   1013.0000000000000     
 T1D   300.000000    
 avRh   4.6088495254516602     
 avkdn,kup,ldown,lup,tsurf
   520.87750244140625        46.465579992153351        319.89623947467283        490.86054825137660        33.143683074434570     
 ,qn1,qf,qs,qh,qeOut
   303.44759967585986        0.0000000000000000       -502.29880530482103       -1010.2832495939190        1816.0296545745998     
 
 Temp_C   26.850006103515625     
 QV1D   1.00000005E-03
 Press_hPa   1013.0000000000000     
 T1D   300.000000    
 avRh   4.6088495254516602     
 avkdn,kup,ldown,lup,tsurf
   528.98278808593750        52.352536296940677        319.89623947467283        490.54086166468932        33.196890924575179     
 ,qn1,qf,qs,qh,qeOut
   305.98560517746381        0.0000000000000000        73.024545385834429       -1385.7970416287972        1618.7581014204266     
 
 Temp_C   26.850006103515625     
 QV1D   1.00000005E-03
 Press_hPa   1013.0000000000000     
 T1D   300.000000    
 avRh   4.6088495254516602     
 avkdn,kup,ldown,lup,tsurf
   497.92929077148438        32.491239986187935        319.89623947467283        491.27996568886738        32.974443147419890     
 ,qn1,qf,qs,qh,qeOut
   294.05431600243384        0.0000000000000000       -1807.3010461563620        412.65090324141812        1688.7044589173777     
 
 Temp_C   26.850006103515625     
 QV1D   1.00000005E-03
 Press_hPa   1013.0000000000000     
 T1D   300.000000    
 avRh   4.6088495254516602     
 avkdn,kup,ldown,lup,tsurf
   505.27542114257812        23.432820269875482        319.89623947467283        493.36166109313814        33.147484880717087     
 ,qn1,qf,qs,qh,qeOut
   308.37717762117273        0.0000000000000000       -2653.8284243847665        1964.1298134079891        998.07578859795001     
 
 Temp_C   26.850006103515625     
 QV1D   1.00000005E-03
 Press_hPa   1013.0000000000000     
 T1D   300.000000    
 avRh   4.6088495254516602     
 avkdn,kup,ldown,lup,tsurf
   512.85772705078125        47.637181577394344        319.89623947467283        489.46396593020040        33.051701856948597     
 ,qn1,qf,qs,qh,qeOut
   295.65279919254118        0.0000000000000000       -2445.0065684557635        1348.0400200235829        1392.6193476247217     
 
 Temp_C   26.850006103515625     
 QV1D   1.00000005E-03
 Press_hPa   1013.0000000000000     
 T1D   300.000000    
 avRh   4.6088495254516602     
 avkdn,kup,ldown,lup,tsurf
   518.99237060546875        48.235335742574833        319.89623947467283        490.33948738347931        33.107458952591564     
 ,qn1,qf,qs,qh,qeOut
   300.31383055904865        0.0000000000000000       -331.03300128789994       -1093.6827055018000        1725.0295373487486     
 
 Temp_C   26.850006103515625     
 QV1D   1.00000005E-03
 Press_hPa   1013.0000000000000     
 T1D   300.000000    
 avRh   4.6088495254516602     
 avkdn,kup,ldown,lup,tsurf
   527.26690673828125        52.726691459517042        319.89623947467283        490.32275570280541        33.172452676898388     
 ,qn1,qf,qs,qh,qeOut
   304.11369905063162        0.0000000000000000        99.978373597217143       -1409.9860529038099        1614.1213783572243     
 
 Temp_C   26.850006103515625     
 QV1D   1.00000005E-03
 Press_hPa   1013.0000000000000     
 T1D   300.000000    
 avRh   4.6088495254516602     
 avkdn,kup,ldown,lup,tsurf
   496.26126098632812        23.010362786741862        319.89623947467283        492.83646590319273        33.031072975615217     
 ,qn1,qf,qs,qh,qeOut
   300.31068127239018        0.0000000000000000       -3698.6880423005123        2922.1579373224486        1076.8407862504537     
 
 Temp_C   26.850006103515625     
 QV1D   1.00000005E-03
 Press_hPa   1013.0000000000000     
 T1D   300.000000    
 avRh   4.6088495254516602     
 avkdn,kup,ldown,lup,tsurf
   503.64541625976562        19.520746123593220        319.89623947467283        494.18377672325119        33.148161504232277     
 ,qn1,qf,qs,qh,qeOut
   309.83712320443442        0.0000000000000000       -3709.7726022602651        2831.7021163486525        1187.9076091160468     
 
 Temp_C   26.850006103515625     
 QV1D   1.00000005E-03
 Press_hPa   1013.0000000000000     
 T1D   300.000000    
 avRh   4.6088495254516602     
 avkdn,kup,ldown,lup,tsurf
   511.62677001953125        13.077242187933145        319.89623947467283        496.19231495761267        33.292651887973413     
 ,qn1,qf,qs,qh,qeOut
   322.25345832618297        0.0000000000000000       -3870.3039839928360        2856.3887267048322        1336.1687156141872     
 
 Temp_C   26.850006103515625     
 QV1D   1.00000005E-03
 Press_hPa   1013.0000000000000     
 T1D   300.000000    
 avRh   4.6088495254516602     
 avkdn,kup,ldown,lup,tsurf
   516.99206542968750        45.441639206771711        319.89623947467283        490.72869169201442        33.102415998690994     
 ,qn1,qf,qs,qh,qeOut
   300.71800576665271        0.0000000000000000       -484.13597670437036       -1032.5816788828606        1817.4356613538839     
 
 Temp_C   26.850006103515625     
 QV1D   1.00000005E-03
 Press_hPa   1013.0000000000000     
 T1D   300.000000    
 avRh   4.6088495254516602     
 avkdn,kup,ldown,lup,tsurf
   525.30285644531250        52.530286427293504        319.89623947467283        490.18134408510656        33.149618363116986     
 ,qn1,qf,qs,qh,qeOut
   302.48746540758526        0.0000000000000000        99.283249083632484       -1410.2111491527457        1613.4153654766985     
 
 Temp_C   26.850006103515625     
 QV1D   1.00000005E-03
 Press_hPa   1013.0000000000000     
 T1D   300.000000    
 avRh   4.6088495254516602     
 avkdn,kup,ldown,lup,tsurf
   494.66067504882812        5.4185480041607388        319.89623947467283        496.21236073688550        33.143201413697305     
 ,qn1,qf,qs,qh,qeOut
   312.92597183442257        0.0000000000000000       -4830.0222035062252        4448.9988845472481        693.94929079340045     
 
 Temp_C   26.850006103515625     
 QV1D   1.00000005E-03
 Press_hPa   1013.0000000000000     
 T1D   300.000000    
 avRh   4.6088495254516602     
 avkdn,kup,ldown,lup,tsurf
   502.05813598632812        6.5830486062115607        319.89623947467283        496.65323872799650        33.223281801088447     
 ,qn1,qf,qs,qh,qeOut
   318.71811731165826        0.0000000000000000       -4720.9499933171819        4200.9749375530373        838.69317307580263     
 
 Temp_C   26.850006103515625     
 QV1D   1.00000005E-03
 Press_hPa   1013.0000000000000     
 T1D   300.000000    
 avRh   4.6088495254516602     
 avkdn,kup,ldown,lup,tsurf
   506.85122680664062        40.072736799455861        319.89623947467283        490.83636232343798        33.017802324308761     
 ,qn1,qf,qs,qh,qeOut
   295.83833619124584        0.0000000000000000       -961.12222165795833       -624.87799507432851        1881.8385529235327     
 
 Temp_C   26.850006103515625     
 QV1D   1.00000005E-03
 Press_hPa   1013.0000000000000     
 T1D   300.000000    
 avRh   4.6088495254516602     
 avkdn,kup,ldown,lup,tsurf
   514.84271240234375        51.484272007409800        319.89623947467283        489.42821373209352        33.027921211127534     
 ,qn1,qf,qs,qh,qeOut
   293.82646613751325        0.0000000000000000        95.581153182155575       -1411.4099673275348        1609.6552802828926     
 
 Temp_C   26.850006103515625     
 QV1D   1.00000005E-03
 Press_hPa   1013.0000000000000     
 T1D   300.000000    
 avRh   4.6088495254516602     
 avkdn,kup,ldown,lup,tsurf
   522.96154785156250        52.296155564429682        319.89623947467283        490.01276987040359        33.122391319494227     
 ,qn1,qf,qs,qh,qeOut
   300.54886189140205        0.0000000000000000        98.454603807486336       -1410.4794822926574        1612.5737403765731     
 
Timing for main: time 2010-09-01_00:05:00 on domain   1:    0.29331 elapsed seconds
Timing for Writing wrfout_d01_2010-09-01_00:05:00 for domain        1:    0.00399 elapsed seconds
 year =         2010 day =          244 hour =            0 minute =            5
 soilmoist   0.0000000000000000        0.0000000000000000        0.0000000000000000                            NaN   0.0000000000000000        0.0000000000000000        0.0000000000000000     
 state   0.0000000000000000        0.0000000000000000        1.8216880036222622E-044   0.0000000000000000        0.0000000000000000        0.0000000000000000        0.0000000000000000     
 soilmoist   150.00000000000000        150.00000000000000        150.00000000000000        150.00000000000000        150.00000000000000        150.00000000000000        0.0000000000000000     
 state  0.10000000149011612       0.10000000149011612       0.15000000596046448       0.15000000596046448       0.15000000596046448       0.15000000596046448        20000.000000000000     
 Temp_C   26.850006103515625     
 QV1D   1.00000005E-03
 Press_hPa   1013.0000000000000     
 T1D   300.000000    
 avRh   4.6088495254516602     
 avkdn,kup,ldown,lup,tsurf
   502.26062011718750        22.785053242341966        319.89623947467283        493.08314315162289        33.121121602001324     
 ,qn1,qf,qs,qh,qeOut
   306.28864482125772        0.0000000000000000       -2595.4347579024452        2136.6179723936011        765.10543033010185     
 
 HFX =    2136.6179723936011      LH =    765.10543033010185     
 after
 HFX =    50.0000000     LH =    60.0000000    
 
 Temp_C   26.850006103515625     
 QV1D   1.00000005E-03
 Press_hPa   1013.0000000000000     
 T1D   300.000000    
 avRh   4.6088495254516602     
 avkdn,kup,ldown,lup,tsurf
   508.46514892578125        23.352295094203065        319.89623947467283        493.79645087442060        33.182267735840298     
 ,qn1,qf,qs,qh,qeOut
   311.21264436050956        0.0000000000000000       -2276.3556528983731                            NaN                       NaN
 
 Temp_C   26.850006103515625     
 QV1D   1.00000005E-03
 Press_hPa   1013.0000000000000     
 T1D   300.000000    
 avRh   4.6088495254516602     
 avkdn,kup,ldown,lup,tsurf
   514.08087158203125        37.621713946906631        319.89623947467283        491.77929068781435        33.133482225893445     
 ,qn1,qf,qs,qh,qeOut
   304.57613729587604        0.0000000000000000       -1014.4224564594662                            NaN                       NaN
 
 Temp_C   26.850006103515625     
 QV1D   1.00000005E-03
 Press_hPa   1013.0000000000000     
 T1D   300.000000    
 avRh   4.6088495254516602     
 avkdn,kup,ldown,lup,tsurf
   522.82281494140625        45.481603560584055        319.89623947467283        491.16724173909358        33.177815134009478     
 ,qn1,qf,qs,qh,qeOut
   306.07016320306963        0.0000000000000000       -200.62985008224439                            NaN                       NaN
 
 Temp_C   26.850006103515625     
 QV1D   1.00000005E-03
 Press_hPa   1013.0000000000000     
 T1D   300.000000    
 avRh   4.6088495254516602     
 avkdn,kup,ldown,lup,tsurf
   530.67816162109375        52.201715177972460        319.89623947467283        490.71891256013447        33.219177838004150     
 ,qn1,qf,qs,qh,qeOut
   307.65377211991091        0.0000000000000000        64.359968908419361       -1370.2264846954747        1613.5202879069661     
 
 Temp_C   26.850006103515625     
 QV1D   1.00000005E-03
 Press_hPa   1013.0000000000000     
 T1D   300.000000    
 avRh   4.6088495254516602     
 avkdn,kup,ldown,lup,tsurf
   499.89370727539062        14.352785387835880        319.89623947467283        494.62944129697354        33.152698083277933     
 ,qn1,qf,qs,qh,qeOut
   310.80771643868189        0.0000000000000000       -2442.9549618166629                            NaN                       NaN
 
 Temp_C   26.850006103515625     
 QV1D   1.00000005E-03
 Press_hPa   1013.0000000000000     
 T1D   300.000000    
 avRh   4.6088495254516602     
 avkdn,kup,ldown,lup,tsurf
   506.90621948242188        12.529210762225421        319.89623947467283        495.70140626526899        33.247178300015847     
 ,qn1,qf,qs,qh,qeOut
   318.57179120454634        0.0000000000000000       -3593.0648770217413                            NaN                       NaN
 
 Temp_C   26.850006103515625     
 QV1D   1.00000005E-03
 Press_hPa   1013.0000000000000     
 T1D   300.000000    
 avRh   4.6088495254516602     
 avkdn,kup,ldown,lup,tsurf
   515.19018554687500        31.876610431943810        319.89623947467283        492.86070633865279        33.194575783055839     
 ,qn1,qf,qs,qh,qeOut
   310.34910008473531        0.0000000000000000       -2857.3306572173760                            NaN                       NaN
 
 Temp_C   26.850006103515625     
 QV1D   1.00000005E-03
 Press_hPa   1013.0000000000000     
 T1D   300.000000    
 avRh   4.6088495254516602     
 avkdn,kup,ldown,lup,tsurf
   520.87750244140625        46.465579992153351        319.89623947467283        490.86054825137660        33.143683074434570     
 ,qn1,qf,qs,qh,qeOut
   303.44759967585986        0.0000000000000000       -502.29880530482103                            NaN                       NaN
 
 Temp_C   26.850006103515625     
 QV1D   1.00000005E-03
 Press_hPa   1013.0000000000000     
 T1D   300.000000    
 avRh   4.6088495254516602     
 avkdn,kup,ldown,lup,tsurf
   528.98278808593750        52.352536296940677        319.89623947467283        490.54086166468932        33.196890924575179     
 ,qn1,qf,qs,qh,qeOut
   305.98560517746381        0.0000000000000000        73.024545385834429                            NaN                       NaN
 
 Temp_C   26.850006103515625     
 QV1D   1.00000005E-03
 Press_hPa   1013.0000000000000     
 T1D   300.000000    
 avRh   4.6088495254516602     
 avkdn,kup,ldown,lup,tsurf
   497.92929077148438        32.491239986187935        319.89623947467283        491.27996568886738        32.974443147419890     
 ,qn1,qf,qs,qh,qeOut
   294.05431600243384        0.0000000000000000       -1807.3010461563620                            NaN                       NaN
 
 Temp_C   26.850006103515625     
 QV1D   1.00000005E-03
 Press_hPa   1013.0000000000000     
 T1D   300.000000    
 avRh   4.6088495254516602     
 avkdn,kup,ldown,lup,tsurf
   505.27542114257812        23.432820269875482        319.89623947467283        493.36166109313814        33.147484880717087     
 ,qn1,qf,qs,qh,qeOut
   308.37717762117273        0.0000000000000000       -2653.8284243847665                            NaN                       NaN
 
 Temp_C   26.850006103515625     
 QV1D   1.00000005E-03
 Press_hPa   1013.0000000000000     
 T1D   300.000000    
 avRh   4.6088495254516602     
 avkdn,kup,ldown,lup,tsurf
   512.85772705078125        47.637181577394344        319.89623947467283        489.46396593020040        33.051701856948597     
 ,qn1,qf,qs,qh,qeOut
   295.65279919254118        0.0000000000000000       -2445.0065684557635                            NaN                       NaN
 
 Temp_C   26.850006103515625     
 QV1D   1.00000005E-03
 Press_hPa   1013.0000000000000     
 T1D   300.000000    
 avRh   4.6088495254516602     
 avkdn,kup,ldown,lup,tsurf
   518.99237060546875        48.235335742574833        319.89623947467283        490.33948738347931        33.107458952591564     
 ,qn1,qf,qs,qh,qeOut
   300.31383055904865        0.0000000000000000       -331.03300128789994                            NaN                       NaN
 
 Temp_C   26.850006103515625     
 QV1D   1.00000005E-03
 Press_hPa   1013.0000000000000     
 T1D   300.000000    
 avRh   4.6088495254516602     
 avkdn,kup,ldown,lup,tsurf
   527.26690673828125        52.726691459517042        319.89623947467283        490.32275570280541        33.172452676898388     
 ,qn1,qf,qs,qh,qeOut
   304.11369905063162        0.0000000000000000        99.978373597217143                            NaN                       NaN
 
 Temp_C   26.850006103515625     
 QV1D   1.00000005E-03
 Press_hPa   1013.0000000000000     
 T1D   300.000000    
 avRh   4.6088495254516602     
 avkdn,kup,ldown,lup,tsurf
   496.26126098632812        23.010362786741862        319.89623947467283        492.83646590319273        33.031072975615217     
 ,qn1,qf,qs,qh,qeOut
   300.31068127239018        0.0000000000000000       -3698.6880423005123                            NaN                       NaN
 
 Temp_C   26.850006103515625     
 QV1D   1.00000005E-03
 Press_hPa   1013.0000000000000     
 T1D   300.000000    
 avRh   4.6088495254516602     
 avkdn,kup,ldown,lup,tsurf
   503.64541625976562        19.520746123593220        319.89623947467283        494.18377672325119        33.148161504232277     
 ,qn1,qf,qs,qh,qeOut
   309.83712320443442        0.0000000000000000       -3709.7726022602651                            NaN                       NaN
 
 Temp_C   26.850006103515625     
 QV1D   1.00000005E-03
 Press_hPa   1013.0000000000000     
 T1D   300.000000    
 avRh   4.6088495254516602     
 avkdn,kup,ldown,lup,tsurf
   511.62677001953125        13.077242187933145        319.89623947467283        496.19231495761267        33.292651887973413     
 ,qn1,qf,qs,qh,qeOut
   322.25345832618297        0.0000000000000000       -3870.3039839928360                            NaN                       NaN
 
 Temp_C   26.850006103515625     
 QV1D   1.00000005E-03
 Press_hPa   1013.0000000000000     
 T1D   300.000000    
 avRh   4.6088495254516602     
 avkdn,kup,ldown,lup,tsurf
   516.99206542968750        45.441639206771711        319.89623947467283        490.72869169201442        33.102415998690994     
 ,qn1,qf,qs,qh,qeOut
   300.71800576665271        0.0000000000000000       -484.13597670437036                            NaN                       NaN
 
 Temp_C   26.850006103515625     
 QV1D   1.00000005E-03
 Press_hPa   1013.0000000000000     
 T1D   300.000000    
 avRh   4.6088495254516602     
 avkdn,kup,ldown,lup,tsurf
   525.30285644531250        52.530286427293504        319.89623947467283        490.18134408510656        33.149618363116986     
 ,qn1,qf,qs,qh,qeOut
   302.48746540758526        0.0000000000000000        99.283249083632484                            NaN                       NaN
 
 Temp_C   26.850006103515625     
 QV1D   1.00000005E-03
 Press_hPa   1013.0000000000000     
 T1D   300.000000    
 avRh   4.6088495254516602     
 avkdn,kup,ldown,lup,tsurf
   494.66067504882812        5.4185480041607388        319.89623947467283        496.21236073688550        33.143201413697305     
 ,qn1,qf,qs,qh,qeOut
   312.92597183442257        0.0000000000000000       -4830.0222035062252        4448.9988845472471        693.94929079340056     
 
 Temp_C   26.850006103515625     
 QV1D   1.00000005E-03
 Press_hPa   1013.0000000000000     
 T1D   300.000000    
 avRh   4.6088495254516602     
 avkdn,kup,ldown,lup,tsurf
   502.05813598632812        6.5830486062115607        319.89623947467283        496.65323872799650        33.223281801088447     
 ,qn1,qf,qs,qh,qeOut
   318.71811731165826        0.0000000000000000       -4720.9499933171819                            NaN                       NaN
 
 Temp_C   26.850006103515625     
 QV1D   1.00000005E-03
 Press_hPa   1013.0000000000000     
 T1D   300.000000    
 avRh   4.6088495254516602     
 avkdn,kup,ldown,lup,tsurf
   506.85122680664062        40.072736799455861        319.89623947467283        490.83636232343798        33.017802324308761     
 ,qn1,qf,qs,qh,qeOut
   295.83833619124584        0.0000000000000000       -961.12222165795833                            NaN                       NaN
 
 Temp_C   26.850006103515625     
 QV1D   1.00000005E-03
 Press_hPa   1013.0000000000000     
 T1D   300.000000    
 avRh   4.6088495254516602     
 avkdn,kup,ldown,lup,tsurf
   514.84271240234375        51.484272007409800        319.89623947467283        489.42821373209352        33.027921211127534     
 ,qn1,qf,qs,qh,qeOut
   293.82646613751325        0.0000000000000000        95.581153182155575                            NaN                       NaN
 
 Temp_C   26.850006103515625     
 QV1D   1.00000005E-03
 Press_hPa   1013.0000000000000     
 T1D   300.000000    
 avRh   4.6088495254516602     
 avkdn,kup,ldown,lup,tsurf
   522.96154785156250        52.296155564429682        319.89623947467283        490.01276987040359        33.122391319494227     
 ,qn1,qf,qs,qh,qeOut
   300.54886189140205        0.0000000000000000        98.454603807486336       -1410.4794822926572        1612.5737403765729     
 
Timing for main: time 2010-09-01_00:10:00 on domain   1:    0.01460 elapsed seconds
Timing for Writing wrfout_d01_2010-09-01_00:10:00 for domain        1:    0.00587 elapsed seconds
 year =         2010 day =          244 hour =            0 minute =           10
 soilmoist   0.0000000000000000        0.0000000000000000        0.0000000000000000        0.0000000000000000        0.0000000000000000        0.0000000000000000        0.0000000000000000     
 state   0.0000000000000000        0.0000000000000000        0.0000000000000000                            NaN                       NaN  0.30359101295471191        0.0000000000000000     
 soilmoist   150.00000000000000        150.00000000000000        150.00000000000000        150.00000000000000        150.00000000000000        150.00000000000000        0.0000000000000000     
 state  0.10000000149011612       0.10000000149011612       0.15000000596046448       0.15000000596046448       0.15000000596046448       0.15000000596046448        20000.000000000000     
 Temp_C   26.850006103515625     
 QV1D   1.00000005E-03
 Press_hPa   1013.0000000000000     
 T1D   300.000000    
 avRh   4.6088495254516602     
 avkdn,kup,ldown,lup,tsurf
   502.26062011718750        22.785053242341966        319.89623947467283        493.08314315162289        33.121121602001324     
 ,qn1,qf,qs,qh,qeOut
   306.28864482125772        0.0000000000000000       -2595.4347579024452        2136.6179723936007        765.10543033010208     
 
 HFX =    2136.6179723936007      LH =    765.10543033010208     
 after
 HFX =    50.0000000     LH =    60.0000000    
 
 Temp_C   26.850006103515625     
 QV1D   1.00000005E-03
 Press_hPa   1013.0000000000000     
 T1D   300.000000    
 avRh   4.6088495254516602     
 avkdn,kup,ldown,lup,tsurf
   508.46514892578125        23.352295094203065        319.89623947467283        493.79645087442060        33.182267735840298     
 ,qn1,qf,qs,qh,qeOut
   311.21264436050956        0.0000000000000000       -2276.3556528983731                            NaN                       NaN
 
 Temp_C   26.850006103515625     
 QV1D   1.00000005E-03
 Press_hPa   1013.0000000000000     
 T1D   300.000000    
 avRh   4.6088495254516602     
 avkdn,kup,ldown,lup,tsurf
   514.08087158203125        37.621713946906631        319.89623947467283        491.77929068781435        33.133482225893445     
 ,qn1,qf,qs,qh,qeOut
   304.57613729587604        0.0000000000000000       -1014.4224564594662                            NaN                       NaN
 
 Temp_C   26.850006103515625     
 QV1D   1.00000005E-03
 Press_hPa   1013.0000000000000     
 T1D   300.000000    
 avRh   4.6088495254516602     
 avkdn,kup,ldown,lup,tsurf
   522.82281494140625        45.481603560584055        319.89623947467283        491.16724173909358        33.177815134009478     
 ,qn1,qf,qs,qh,qeOut
   306.07016320306963        0.0000000000000000       -200.62985008224439                            NaN                       NaN
 
 Temp_C   26.850006103515625     
 QV1D   1.00000005E-03
 Press_hPa   1013.0000000000000     
 T1D   300.000000    
 avRh   4.6088495254516602     
 avkdn,kup,ldown,lup,tsurf
   530.67816162109375        52.201715177972460        319.89623947467283        490.71891256013447        33.219177838004150     
 ,qn1,qf,qs,qh,qeOut
   307.65377211991091        0.0000000000000000        64.359968908419361       -1370.2264846954747        1613.5202879069661     
 
 Temp_C   26.850006103515625     
 QV1D   1.00000005E-03
 Press_hPa   1013.0000000000000     
 T1D   300.000000    
 avRh   4.6088495254516602     
 avkdn,kup,ldown,lup,tsurf
   499.89370727539062        14.352785387835880        319.89623947467283        494.62944129697354        33.152698083277933     
 ,qn1,qf,qs,qh,qeOut
   310.80771643868189        0.0000000000000000       -2442.9549618166629                            NaN                       NaN
 
 Temp_C   26.850006103515625     
 QV1D   1.00000005E-03
 Press_hPa   1013.0000000000000     
 T1D   300.000000    
 avRh   4.6088495254516602     
 avkdn,kup,ldown,lup,tsurf
   506.90621948242188        12.529210762225421        319.89623947467283        495.70140626526899        33.247178300015847     
 ,qn1,qf,qs,qh,qeOut
   318.57179120454634        0.0000000000000000       -3593.0648770217413                            NaN                       NaN
 
 Temp_C   26.850006103515625     
 QV1D   1.00000005E-03
 Press_hPa   1013.0000000000000     
 T1D   300.000000    
 avRh   4.6088495254516602     
 avkdn,kup,ldown,lup,tsurf
   515.19018554687500        31.876610431943810        319.89623947467283        492.86070633865279        33.194575783055839     
 ,qn1,qf,qs,qh,qeOut
   310.34910008473531        0.0000000000000000       -2857.3306572173760                            NaN                       NaN
 
 Temp_C   26.850006103515625     
 QV1D   1.00000005E-03
 Press_hPa   1013.0000000000000     
 T1D   300.000000    
 avRh   4.6088495254516602     
 avkdn,kup,ldown,lup,tsurf
   520.87750244140625        46.465579992153351        319.89623947467283        490.86054825137660        33.143683074434570     
 ,qn1,qf,qs,qh,qeOut
   303.44759967585986        0.0000000000000000       -502.29880530482103                            NaN                       NaN
 
 Temp_C   26.850006103515625     
 QV1D   1.00000005E-03
 Press_hPa   1013.0000000000000     
 T1D   300.000000    
 avRh   4.6088495254516602     
 avkdn,kup,ldown,lup,tsurf
   528.98278808593750        52.352536296940677        319.89623947467283        490.54086166468932        33.196890924575179     
 ,qn1,qf,qs,qh,qeOut
   305.98560517746381        0.0000000000000000        73.024545385834429                            NaN                       NaN
 
 Temp_C   26.850006103515625     
 QV1D   1.00000005E-03
 Press_hPa   1013.0000000000000     
 T1D   300.000000    
 avRh   4.6088495254516602     
 avkdn,kup,ldown,lup,tsurf
   497.92929077148438        32.491239986187935        319.89623947467283        491.27996568886738        32.974443147419890     
 ,qn1,qf,qs,qh,qeOut
   294.05431600243384        0.0000000000000000       -1807.3010461563620                            NaN                       NaN
 
 Temp_C   26.850006103515625     
 QV1D   1.00000005E-03
 Press_hPa   1013.0000000000000     
 T1D   300.000000    
 avRh   4.6088495254516602     
 avkdn,kup,ldown,lup,tsurf
   505.27542114257812        23.432820269875482        319.89623947467283        493.36166109313814        33.147484880717087     
 ,qn1,qf,qs,qh,qeOut
   308.37717762117273        0.0000000000000000       -2653.8284243847665                            NaN                       NaN
 
 Temp_C   26.850006103515625     
 QV1D   1.00000005E-03
 Press_hPa   1013.0000000000000     
 T1D   300.000000    
 avRh   4.6088495254516602     
 avkdn,kup,ldown,lup,tsurf
   512.85772705078125        47.637181577394344        319.89623947467283        489.46396593020040        33.051701856948597     
 ,qn1,qf,qs,qh,qeOut
   295.65279919254118        0.0000000000000000       -2445.0065684557635                            NaN                       NaN
 
 Temp_C   26.850006103515625     
 QV1D   1.00000005E-03
 Press_hPa   1013.0000000000000     
 T1D   300.000000    
 avRh   4.6088495254516602     
 avkdn,kup,ldown,lup,tsurf
   518.99237060546875        48.235335742574833        319.89623947467283        490.33948738347931        33.107458952591564     
 ,qn1,qf,qs,qh,qeOut
   300.31383055904865        0.0000000000000000       -331.03300128789994                            NaN                       NaN
 
 Temp_C   26.850006103515625     
 QV1D   1.00000005E-03
 Press_hPa   1013.0000000000000     
 T1D   300.000000    
 avRh   4.6088495254516602     
 avkdn,kup,ldown,lup,tsurf
   527.26690673828125        52.726691459517042        319.89623947467283        490.32275570280541        33.172452676898388     
 ,qn1,qf,qs,qh,qeOut
   304.11369905063162        0.0000000000000000        99.978373597217143                            NaN                       NaN
 
 Temp_C   26.850006103515625     
 QV1D   1.00000005E-03
 Press_hPa   1013.0000000000000     
 T1D   300.000000    
 avRh   4.6088495254516602     
 avkdn,kup,ldown,lup,tsurf
   496.26126098632812        23.010362786741862        319.89623947467283        492.83646590319273        33.031072975615217     
 ,qn1,qf,qs,qh,qeOut
   300.31068127239018        0.0000000000000000       -3698.6880423005123                            NaN                       NaN
 
 Temp_C   26.850006103515625     
 QV1D   1.00000005E-03
 Press_hPa   1013.0000000000000     
 T1D   300.000000    
 avRh   4.6088495254516602     
 avkdn,kup,ldown,lup,tsurf
   503.64541625976562        19.520746123593220        319.89623947467283        494.18377672325119        33.148161504232277     
 ,qn1,qf,qs,qh,qeOut
   309.83712320443442        0.0000000000000000       -3709.7726022602651                            NaN                       NaN
 
 Temp_C   26.850006103515625     
 QV1D   1.00000005E-03
 Press_hPa   1013.0000000000000     
 T1D   300.000000    
 avRh   4.6088495254516602     
 avkdn,kup,ldown,lup,tsurf
   511.62677001953125        13.077242187933145        319.89623947467283        496.19231495761267        33.292651887973413     
 ,qn1,qf,qs,qh,qeOut
   322.25345832618297        0.0000000000000000       -3870.3039839928360                            NaN                       NaN
 
 Temp_C   26.850006103515625     
 QV1D   1.00000005E-03
 Press_hPa   1013.0000000000000     
 T1D   300.000000    
 avRh   4.6088495254516602     
 avkdn,kup,ldown,lup,tsurf
   516.99206542968750        45.441639206771711        319.89623947467283        490.72869169201442        33.102415998690994     
 ,qn1,qf,qs,qh,qeOut
   300.71800576665271        0.0000000000000000       -484.13597670437036                            NaN                       NaN
 
 Temp_C   26.850006103515625     
 QV1D   1.00000005E-03
 Press_hPa   1013.0000000000000     
 T1D   300.000000    
 avRh   4.6088495254516602     
 avkdn,kup,ldown,lup,tsurf
   525.30285644531250        52.530286427293504        319.89623947467283        490.18134408510656        33.149618363116986     
 ,qn1,qf,qs,qh,qeOut
   302.48746540758526        0.0000000000000000        99.283249083632484                            NaN                       NaN
 
 Temp_C   26.850006103515625     
 QV1D   1.00000005E-03
 Press_hPa   1013.0000000000000     
 T1D   300.000000    
 avRh   4.6088495254516602     
 avkdn,kup,ldown,lup,tsurf
   494.66067504882812        5.4185480041607388        319.89623947467283        496.21236073688550        33.143201413697305     
 ,qn1,qf,qs,qh,qeOut
   312.92597183442257        0.0000000000000000       -4830.0222035062252        4448.9988845472471        693.94929079340056     
 
 Temp_C   26.850006103515625     
 QV1D   1.00000005E-03
 Press_hPa   1013.0000000000000     
 T1D   300.000000    
 avRh   4.6088495254516602     
 avkdn,kup,ldown,lup,tsurf
   502.05813598632812        6.5830486062115607        319.89623947467283        496.65323872799650        33.223281801088447     
 ,qn1,qf,qs,qh,qeOut
   318.71811731165826        0.0000000000000000       -4720.9499933171819                            NaN                       NaN
 
 Temp_C   26.850006103515625     
 QV1D   1.00000005E-03
 Press_hPa   1013.0000000000000     
 T1D   300.000000    
 avRh   4.6088495254516602     
 avkdn,kup,ldown,lup,tsurf
   506.85122680664062        40.072736799455861        319.89623947467283        490.83636232343798        33.017802324308761     
 ,qn1,qf,qs,qh,qeOut
   295.83833619124584        0.0000000000000000       -961.12222165795833                            NaN                       NaN
 
 Temp_C   26.850006103515625     
 QV1D   1.00000005E-03
 Press_hPa   1013.0000000000000     
 T1D   300.000000    
 avRh   4.6088495254516602     
 avkdn,kup,ldown,lup,tsurf
   514.84271240234375        51.484272007409800        319.89623947467283        489.42821373209352        33.027921211127534     
 ,qn1,qf,qs,qh,qeOut
   293.82646613751325        0.0000000000000000        95.581153182155575                            NaN                       NaN
 
 Temp_C   26.850006103515625     
 QV1D   1.00000005E-03
 Press_hPa   1013.0000000000000     
 T1D   300.000000    
 avRh   4.6088495254516602     
 avkdn,kup,ldown,lup,tsurf
   522.96154785156250        52.296155564429682        319.89623947467283        490.01276987040359        33.122391319494227     
 ,qn1,qf,qs,qh,qeOut
   300.54886189140205        0.0000000000000000        98.454603807486336       -1410.4794822926574        1612.5737403765731     
 
Timing for main: time 2010-09-01_00:15:00 on domain   1:    0.01516 elapsed seconds
Timing for Writing wrfout_d01_2010-09-01_00:15:00 for domain        1:    0.00438 elapsed seconds
 year =         2010 day =          244 hour =            0 minute =           15
 soilmoist   0.0000000000000000        0.0000000000000000        0.0000000000000000        0.0000000000000000        0.0000000000000000        0.0000000000000000        0.0000000000000000     
 state   0.0000000000000000        0.0000000000000000        0.0000000000000000        0.0000000000000000        0.0000000000000000        0.0000000000000000        0.0000000000000000     
 soilmoist   150.00000000000000        150.00000000000000        150.00000000000000        150.00000000000000        150.00000000000000        150.00000000000000        0.0000000000000000     
 state  0.10000000149011612       0.10000000149011612       0.15000000596046448       0.15000000596046448       0.15000000596046448       0.15000000596046448        20000.000000000000     
 Temp_C   26.850006103515625     
 QV1D   1.00000005E-03
 Press_hPa   1013.0000000000000     
 T1D   300.000000    
 avRh   4.6088495254516602     
 avkdn,kup,ldown,lup,tsurf
   502.26062011718750        22.785053242341966        319.89623947467283        493.08314315162289        33.121121602001324     
 ,qn1,qf,qs,qh,qeOut
   306.28864482125772        0.0000000000000000       -2595.4347579024452        2136.6179723936011        765.10543033010185     
 
 HFX =    2136.6179723936011      LH =    765.10543033010185     
 after
 HFX =    50.0000000     LH =    60.0000000    
 
 Temp_C   26.850006103515625     
 QV1D   1.00000005E-03
 Press_hPa   1013.0000000000000     
 T1D   300.000000    
 avRh   4.6088495254516602     
 avkdn,kup,ldown,lup,tsurf
   508.46514892578125        23.352295094203065        319.89623947467283        493.79645087442060        33.182267735840298     
 ,qn1,qf,qs,qh,qeOut
   311.21264436050956        0.0000000000000000       -2276.3556528983731                            NaN                       NaN
 
 Temp_C   26.850006103515625     
 QV1D   1.00000005E-03
 Press_hPa   1013.0000000000000     
 T1D   300.000000    
 avRh   4.6088495254516602     
 avkdn,kup,ldown,lup,tsurf
   514.08087158203125        37.621713946906631        319.89623947467283        491.77929068781435        33.133482225893445     
 ,qn1,qf,qs,qh,qeOut
   304.57613729587604        0.0000000000000000       -1014.4224564594662                            NaN                       NaN
 
 Temp_C   26.850006103515625     
 QV1D   1.00000005E-03
 Press_hPa   1013.0000000000000     
 T1D   300.000000    
 avRh   4.6088495254516602     
 avkdn,kup,ldown,lup,tsurf
   522.82281494140625        45.481603560584055        319.89623947467283        491.16724173909358        33.177815134009478     
 ,qn1,qf,qs,qh,qeOut
   306.07016320306963        0.0000000000000000       -200.62985008224439                            NaN                       NaN
 
 Temp_C   26.850006103515625     
 QV1D   1.00000005E-03
 Press_hPa   1013.0000000000000     
 T1D   300.000000    
 avRh   4.6088495254516602     
 avkdn,kup,ldown,lup,tsurf
   530.67816162109375        52.201715177972460        319.89623947467283        490.71891256013447        33.219177838004150     
 ,qn1,qf,qs,qh,qeOut
   307.65377211991091        0.0000000000000000        64.359968908419361       -1370.2264846954747        1613.5202879069661     
 
 Temp_C   26.850006103515625     
 QV1D   1.00000005E-03
 Press_hPa   1013.0000000000000     
 T1D   300.000000    
 avRh   4.6088495254516602     
 avkdn,kup,ldown,lup,tsurf
   499.89370727539062        14.352785387835880        319.89623947467283        494.62944129697354        33.152698083277933     
 ,qn1,qf,qs,qh,qeOut
   310.80771643868189        0.0000000000000000       -2442.9549618166629                            NaN                       NaN
 
 Temp_C   26.850006103515625     
 QV1D   1.00000005E-03
 Press_hPa   1013.0000000000000     
 T1D   300.000000    
 avRh   4.6088495254516602     
 avkdn,kup,ldown,lup,tsurf
   506.90621948242188        12.529210762225421        319.89623947467283        495.70140626526899        33.247178300015847     
 ,qn1,qf,qs,qh,qeOut
   318.57179120454634        0.0000000000000000       -3593.0648770217413                            NaN                       NaN
 
 Temp_C   26.850006103515625     
 QV1D   1.00000005E-03
 Press_hPa   1013.0000000000000     
 T1D   300.000000    
 avRh   4.6088495254516602     
 avkdn,kup,ldown,lup,tsurf
   515.19018554687500        31.876610431943810        319.89623947467283        492.86070633865279        33.194575783055839     
 ,qn1,qf,qs,qh,qeOut
   310.34910008473531        0.0000000000000000       -2857.3306572173760                            NaN                       NaN
 
 Temp_C   26.850006103515625     
 QV1D   1.00000005E-03
 Press_hPa   1013.0000000000000     
 T1D   300.000000    
 avRh   4.6088495254516602     
 avkdn,kup,ldown,lup,tsurf
   520.87750244140625        46.465579992153351        319.89623947467283        490.86054825137660        33.143683074434570     
 ,qn1,qf,qs,qh,qeOut
   303.44759967585986        0.0000000000000000       -502.29880530482103                            NaN                       NaN
 
 Temp_C   26.850006103515625     
 QV1D   1.00000005E-03
 Press_hPa   1013.0000000000000     
 T1D   300.000000    
 avRh   4.6088495254516602     
 avkdn,kup,ldown,lup,tsurf
   528.98278808593750        52.352536296940677        319.89623947467283        490.54086166468932        33.196890924575179     
 ,qn1,qf,qs,qh,qeOut
   305.98560517746381        0.0000000000000000        73.024545385834429                            NaN                       NaN
 
 Temp_C   26.850006103515625     
 QV1D   1.00000005E-03
 Press_hPa   1013.0000000000000     
 T1D   300.000000    
 avRh   4.6088495254516602     
 avkdn,kup,ldown,lup,tsurf
   497.92929077148438        32.491239986187935        319.89623947467283        491.27996568886738        32.974443147419890     
 ,qn1,qf,qs,qh,qeOut
   294.05431600243384        0.0000000000000000       -1807.3010461563620                            NaN                       NaN
 
 Temp_C   26.850006103515625     
 QV1D   1.00000005E-03
 Press_hPa   1013.0000000000000     
 T1D   300.000000    
 avRh   4.6088495254516602     
 avkdn,kup,ldown,lup,tsurf
   505.27542114257812        23.432820269875482        319.89623947467283        493.36166109313814        33.147484880717087     
 ,qn1,qf,qs,qh,qeOut
   308.37717762117273        0.0000000000000000       -2653.8284243847665                            NaN                       NaN
 
 Temp_C   26.850006103515625     
 QV1D   1.00000005E-03
 Press_hPa   1013.0000000000000     
 T1D   300.000000    
 avRh   4.6088495254516602     
 avkdn,kup,ldown,lup,tsurf
   512.85772705078125        47.637181577394344        319.89623947467283        489.46396593020040        33.051701856948597     
 ,qn1,qf,qs,qh,qeOut
   295.65279919254118        0.0000000000000000       -2445.0065684557635                            NaN                       NaN
 
 Temp_C   26.850006103515625     
 QV1D   1.00000005E-03
 Press_hPa   1013.0000000000000     
 T1D   300.000000    
 avRh   4.6088495254516602     
 avkdn,kup,ldown,lup,tsurf
   518.99237060546875        48.235335742574833        319.89623947467283        490.33948738347931        33.107458952591564     
 ,qn1,qf,qs,qh,qeOut
   300.31383055904865        0.0000000000000000       -331.03300128789994                            NaN                       NaN
 
 Temp_C   26.850006103515625     
 QV1D   1.00000005E-03
 Press_hPa   1013.0000000000000     
 T1D   300.000000    
 avRh   4.6088495254516602     
 avkdn,kup,ldown,lup,tsurf
   527.26690673828125        52.726691459517042        319.89623947467283        490.32275570280541        33.172452676898388     
 ,qn1,qf,qs,qh,qeOut
   304.11369905063162        0.0000000000000000        99.978373597217143                            NaN                       NaN
 
 Temp_C   26.850006103515625     
 QV1D   1.00000005E-03
 Press_hPa   1013.0000000000000     
 T1D   300.000000    
 avRh   4.6088495254516602     
 avkdn,kup,ldown,lup,tsurf
   496.26126098632812        23.010362786741862        319.89623947467283        492.83646590319273        33.031072975615217     
 ,qn1,qf,qs,qh,qeOut
   300.31068127239018        0.0000000000000000       -3698.6880423005123                            NaN                       NaN
 
 Temp_C   26.850006103515625     
 QV1D   1.00000005E-03
 Press_hPa   1013.0000000000000     
 T1D   300.000000    
 avRh   4.6088495254516602     
 avkdn,kup,ldown,lup,tsurf
   503.64541625976562        19.520746123593220        319.89623947467283        494.18377672325119        33.148161504232277     
 ,qn1,qf,qs,qh,qeOut
   309.83712320443442        0.0000000000000000       -3709.7726022602651                            NaN                       NaN
 
 Temp_C   26.850006103515625     
 QV1D   1.00000005E-03
 Press_hPa   1013.0000000000000     
 T1D   300.000000    
 avRh   4.6088495254516602     
 avkdn,kup,ldown,lup,tsurf
   511.62677001953125        13.077242187933145        319.89623947467283        496.19231495761267        33.292651887973413     
 ,qn1,qf,qs,qh,qeOut
   322.25345832618297        0.0000000000000000       -3870.3039839928360                            NaN                       NaN
 
 Temp_C   26.850006103515625     
 QV1D   1.00000005E-03
 Press_hPa   1013.0000000000000     
 T1D   300.000000    
 avRh   4.6088495254516602     
 avkdn,kup,ldown,lup,tsurf
   516.99206542968750        45.441639206771711        319.89623947467283        490.72869169201442        33.102415998690994     
 ,qn1,qf,qs,qh,qeOut
   300.71800576665271        0.0000000000000000       -484.13597670437036                            NaN                       NaN
 
 Temp_C   26.850006103515625     
 QV1D   1.00000005E-03
 Press_hPa   1013.0000000000000     
 T1D   300.000000    
 avRh   4.6088495254516602     
 avkdn,kup,ldown,lup,tsurf
   525.30285644531250        52.530286427293504        319.89623947467283        490.18134408510656        33.149618363116986     
 ,qn1,qf,qs,qh,qeOut
   302.48746540758526        0.0000000000000000        99.283249083632484                            NaN                       NaN
 
 Temp_C   26.850006103515625     
 QV1D   1.00000005E-03
 Press_hPa   1013.0000000000000     
 T1D   300.000000    
 avRh   4.6088495254516602     
 avkdn,kup,ldown,lup,tsurf
   494.66067504882812        5.4185480041607388        319.89623947467283        496.21236073688550        33.143201413697305     
 ,qn1,qf,qs,qh,qeOut
   312.92597183442257        0.0000000000000000       -4830.0222035062252        4448.9988845472471        693.94929079340056     
 
 Temp_C   26.850006103515625     
 QV1D   1.00000005E-03
 Press_hPa   1013.0000000000000     
 T1D   300.000000    
 avRh   4.6088495254516602     
 avkdn,kup,ldown,lup,tsurf
   502.05813598632812        6.5830486062115607        319.89623947467283        496.65323872799650        33.223281801088447     
 ,qn1,qf,qs,qh,qeOut
   318.71811731165826        0.0000000000000000       -4720.9499933171819                            NaN                       NaN
 
 Temp_C   26.850006103515625     
 QV1D   1.00000005E-03
 Press_hPa   1013.0000000000000     
 T1D   300.000000    
 avRh   4.6088495254516602     
 avkdn,kup,ldown,lup,tsurf
   506.85122680664062        40.072736799455861        319.89623947467283        490.83636232343798        33.017802324308761     
 ,qn1,qf,qs,qh,qeOut
   295.83833619124584        0.0000000000000000       -961.12222165795833                            NaN                       NaN
 
 Temp_C   26.850006103515625     
 QV1D   1.00000005E-03
 Press_hPa   1013.0000000000000     
 T1D   300.000000    
 avRh   4.6088495254516602     
 avkdn,kup,ldown,lup,tsurf
   514.84271240234375        51.484272007409800        319.89623947467283        489.42821373209352        33.027921211127534     
 ,qn1,qf,qs,qh,qeOut
   293.82646613751325        0.0000000000000000        95.581153182155575                            NaN                       NaN
 
 Temp_C   26.850006103515625     
 QV1D   1.00000005E-03
 Press_hPa   1013.0000000000000     
 T1D   300.000000    
 avRh   4.6088495254516602     
 avkdn,kup,ldown,lup,tsurf
   522.96154785156250        52.296155564429682        319.89623947467283        490.01276987040359        33.122391319494227     
 ,qn1,qf,qs,qh,qeOut
   300.54886189140205        0.0000000000000000        98.454603807486336       -1410.4794822926576        1612.5737403765734     
 
Timing for main: time 2010-09-01_00:20:00 on domain   1:    0.02341 elapsed seconds
Timing for Writing wrfout_d01_2010-09-01_00:20:00 for domain        1:    0.00595 elapsed seconds
 year =         2010 day =          244 hour =            0 minute =           20
 soilmoist   0.0000000000000000        0.0000000000000000        0.0000000000000000        0.0000000000000000        0.0000000000000000        0.0000000000000000        0.0000000000000000     
 state   0.0000000000000000        0.0000000000000000        0.0000000000000000        0.0000000000000000        0.0000000000000000        0.0000000000000000        0.0000000000000000     
 soilmoist   150.00000000000000        150.00000000000000        150.00000000000000        150.00000000000000        150.00000000000000        150.00000000000000        0.0000000000000000     
 state  0.10000000149011612       0.10000000149011612       0.15000000596046448       0.15000000596046448       0.15000000596046448       0.15000000596046448        20000.000000000000     
 Temp_C   26.850006103515625     
 QV1D   1.00000005E-03
 Press_hPa   1013.0000000000000     
 T1D   300.000000    
 avRh   4.6088495254516602     
 avkdn,kup,ldown,lup,tsurf
   502.26062011718750        22.785053242341966        319.89623947467283        493.08314315162289        33.121121602001324     
 ,qn1,qf,qs,qh,qeOut
   306.28864482125772        0.0000000000000000       -2595.4347579024452        2136.6179723936011        765.10543033010185     
 
 HFX =    2136.6179723936011      LH =    765.10543033010185     
 after
 HFX =    50.0000000     LH =    60.0000000    
 
 Temp_C   26.850006103515625     
 QV1D   1.00000005E-03
 Press_hPa   1013.0000000000000     
 T1D   300.000000    
 avRh   4.6088495254516602     
 avkdn,kup,ldown,lup,tsurf
   508.46514892578125        23.352295094203065        319.89623947467283        493.79645087442060        33.182267735840298     
 ,qn1,qf,qs,qh,qeOut
   311.21264436050956        0.0000000000000000       -2276.3556528983731                            NaN                       NaN
 
 Temp_C   26.850006103515625     
 QV1D   1.00000005E-03
 Press_hPa   1013.0000000000000     
 T1D   300.000000    
 avRh   4.6088495254516602     
 avkdn,kup,ldown,lup,tsurf
   514.08087158203125        37.621713946906631        319.89623947467283        491.77929068781435        33.133482225893445     
 ,qn1,qf,qs,qh,qeOut
   304.57613729587604        0.0000000000000000       -1014.4224564594662                            NaN                       NaN
 
 Temp_C   26.850006103515625     
 QV1D   1.00000005E-03
 Press_hPa   1013.0000000000000     
 T1D   300.000000    
 avRh   4.6088495254516602     
 avkdn,kup,ldown,lup,tsurf
   522.82281494140625        45.481603560584055        319.89623947467283        491.16724173909358        33.177815134009478     
 ,qn1,qf,qs,qh,qeOut
   306.07016320306963        0.0000000000000000       -200.62985008224439                            NaN                       NaN
 
 Temp_C   26.850006103515625     
 QV1D   1.00000005E-03
 Press_hPa   1013.0000000000000     
 T1D   300.000000    
 avRh   4.6088495254516602     
 avkdn,kup,ldown,lup,tsurf
   530.67816162109375        52.201715177972460        319.89623947467283        490.71891256013447        33.219177838004150     
 ,qn1,qf,qs,qh,qeOut
   307.65377211991091        0.0000000000000000        64.359968908419361       -1370.2264846954747        1613.5202879069661     
 
 Temp_C   26.850006103515625     
 QV1D   1.00000005E-03
 Press_hPa   1013.0000000000000     
 T1D   300.000000    
 avRh   4.6088495254516602     
 avkdn,kup,ldown,lup,tsurf
   499.89370727539062        14.352785387835880        319.89623947467283        494.62944129697354        33.152698083277933     
 ,qn1,qf,qs,qh,qeOut
   310.80771643868189        0.0000000000000000       -2442.9549618166629                            NaN                       NaN
 
 Temp_C   26.850006103515625     
 QV1D   1.00000005E-03
 Press_hPa   1013.0000000000000     
 T1D   300.000000    
 avRh   4.6088495254516602     
 avkdn,kup,ldown,lup,tsurf
   506.90621948242188        12.529210762225421        319.89623947467283        495.70140626526899        33.247178300015847     
 ,qn1,qf,qs,qh,qeOut
   318.57179120454634        0.0000000000000000       -3593.0648770217413                            NaN                       NaN
 
 Temp_C   26.850006103515625     
 QV1D   1.00000005E-03
 Press_hPa   1013.0000000000000     
 T1D   300.000000    
 avRh   4.6088495254516602     
 avkdn,kup,ldown,lup,tsurf
   515.19018554687500        31.876610431943810        319.89623947467283        492.86070633865279        33.194575783055839     
 ,qn1,qf,qs,qh,qeOut
   310.34910008473531        0.0000000000000000       -2857.3306572173760                            NaN                       NaN
 
 Temp_C   26.850006103515625     
 QV1D   1.00000005E-03
 Press_hPa   1013.0000000000000     
 T1D   300.000000    
 avRh   4.6088495254516602     
 avkdn,kup,ldown,lup,tsurf
   520.87750244140625        46.465579992153351        319.89623947467283        490.86054825137660        33.143683074434570     
 ,qn1,qf,qs,qh,qeOut
   303.44759967585986        0.0000000000000000       -502.29880530482103                            NaN                       NaN
 
 Temp_C   26.850006103515625     
 QV1D   1.00000005E-03
 Press_hPa   1013.0000000000000     
 T1D   300.000000    
 avRh   4.6088495254516602     
 avkdn,kup,ldown,lup,tsurf
   528.98278808593750        52.352536296940677        319.89623947467283        490.54086166468932        33.196890924575179     
 ,qn1,qf,qs,qh,qeOut
   305.98560517746381        0.0000000000000000        73.024545385834429                            NaN                       NaN
 
 Temp_C   26.850006103515625     
 QV1D   1.00000005E-03
 Press_hPa   1013.0000000000000     
 T1D   300.000000    
 avRh   4.6088495254516602     
 avkdn,kup,ldown,lup,tsurf
   497.92929077148438        32.491239986187935        319.89623947467283        491.27996568886738        32.974443147419890     
 ,qn1,qf,qs,qh,qeOut
   294.05431600243384        0.0000000000000000       -1807.3010461563620                            NaN                       NaN
 
 Temp_C   26.850006103515625     
 QV1D   1.00000005E-03
 Press_hPa   1013.0000000000000     
 T1D   300.000000    
 avRh   4.6088495254516602     
 avkdn,kup,ldown,lup,tsurf
   505.27542114257812        23.432820269875482        319.89623947467283        493.36166109313814        33.147484880717087     
 ,qn1,qf,qs,qh,qeOut
   308.37717762117273        0.0000000000000000       -2653.8284243847665                            NaN                       NaN
 
 Temp_C   26.850006103515625     
 QV1D   1.00000005E-03
 Press_hPa   1013.0000000000000     
 T1D   300.000000    
 avRh   4.6088495254516602     
 avkdn,kup,ldown,lup,tsurf
   512.85772705078125        47.637181577394344        319.89623947467283        489.46396593020040        33.051701856948597     
 ,qn1,qf,qs,qh,qeOut
   295.65279919254118        0.0000000000000000       -2445.0065684557635                            NaN                       NaN
 
 Temp_C   26.850006103515625     
 QV1D   1.00000005E-03
 Press_hPa   1013.0000000000000     
 T1D   300.000000    
 avRh   4.6088495254516602     
 avkdn,kup,ldown,lup,tsurf
   518.99237060546875        48.235335742574833        319.89623947467283        490.33948738347931        33.107458952591564     
 ,qn1,qf,qs,qh,qeOut
   300.31383055904865        0.0000000000000000       -331.03300128789994                            NaN                       NaN
 
 Temp_C   26.850006103515625     
 QV1D   1.00000005E-03
 Press_hPa   1013.0000000000000     
 T1D   300.000000    
 avRh   4.6088495254516602     
 avkdn,kup,ldown,lup,tsurf
   527.26690673828125        52.726691459517042        319.89623947467283        490.32275570280541        33.172452676898388     
 ,qn1,qf,qs,qh,qeOut
   304.11369905063162        0.0000000000000000        99.978373597217143                            NaN                       NaN
 
 Temp_C   26.850006103515625     
 QV1D   1.00000005E-03
 Press_hPa   1013.0000000000000     
 T1D   300.000000    
 avRh   4.6088495254516602     
 avkdn,kup,ldown,lup,tsurf
   496.26126098632812        23.010362786741862        319.89623947467283        492.83646590319273        33.031072975615217     
 ,qn1,qf,qs,qh,qeOut
   300.31068127239018        0.0000000000000000       -3698.6880423005123                            NaN                       NaN
 
 Temp_C   26.850006103515625     
 QV1D   1.00000005E-03
 Press_hPa   1013.0000000000000     
 T1D   300.000000    
 avRh   4.6088495254516602     
 avkdn,kup,ldown,lup,tsurf
   503.64541625976562        19.520746123593220        319.89623947467283        494.18377672325119        33.148161504232277     
 ,qn1,qf,qs,qh,qeOut
   309.83712320443442        0.0000000000000000       -3709.7726022602651                            NaN                       NaN
 
 Temp_C   26.850006103515625     
 QV1D   1.00000005E-03
 Press_hPa   1013.0000000000000     
 T1D   300.000000    
 avRh   4.6088495254516602     
 avkdn,kup,ldown,lup,tsurf
   511.62677001953125        13.077242187933145        319.89623947467283        496.19231495761267        33.292651887973413     
 ,qn1,qf,qs,qh,qeOut
   322.25345832618297        0.0000000000000000       -3870.3039839928360                            NaN                       NaN
 
 Temp_C   26.850006103515625     
 QV1D   1.00000005E-03
 Press_hPa   1013.0000000000000     
 T1D   300.000000    
 avRh   4.6088495254516602     
 avkdn,kup,ldown,lup,tsurf
   516.99206542968750        45.441639206771711        319.89623947467283        490.72869169201442        33.102415998690994     
 ,qn1,qf,qs,qh,qeOut
   300.71800576665271        0.0000000000000000       -484.13597670437036                            NaN                       NaN
 
 Temp_C   26.850006103515625     
 QV1D   1.00000005E-03
 Press_hPa   1013.0000000000000     
 T1D   300.000000    
 avRh   4.6088495254516602     
 avkdn,kup,ldown,lup,tsurf
   525.30285644531250        52.530286427293504        319.89623947467283        490.18134408510656        33.149618363116986     
 ,qn1,qf,qs,qh,qeOut
   302.48746540758526        0.0000000000000000        99.283249083632484                            NaN                       NaN
 
 Temp_C   26.850006103515625     
 QV1D   1.00000005E-03
 Press_hPa   1013.0000000000000     
 T1D   300.000000    
 avRh   4.6088495254516602     
 avkdn,kup,ldown,lup,tsurf
   494.66067504882812        5.4185480041607388        319.89623947467283        496.21236073688550        33.143201413697305     
 ,qn1,qf,qs,qh,qeOut
   312.92597183442257        0.0000000000000000       -4830.0222035062252        4448.9988845472471        693.94929079340056     
 
 Temp_C   26.850006103515625     
 QV1D   1.00000005E-03
 Press_hPa   1013.0000000000000     
 T1D   300.000000    
 avRh   4.6088495254516602     
 avkdn,kup,ldown,lup,tsurf
   502.05813598632812        6.5830486062115607        319.89623947467283        496.65323872799650        33.223281801088447     
 ,qn1,qf,qs,qh,qeOut
   318.71811731165826        0.0000000000000000       -4720.9499933171819                            NaN                       NaN
 
 Temp_C   26.850006103515625     
 QV1D   1.00000005E-03
 Press_hPa   1013.0000000000000     
 T1D   300.000000    
 avRh   4.6088495254516602     
 avkdn,kup,ldown,lup,tsurf
   506.85122680664062        40.072736799455861        319.89623947467283        490.83636232343798        33.017802324308761     
 ,qn1,qf,qs,qh,qeOut
   295.83833619124584        0.0000000000000000       -961.12222165795833                            NaN                       NaN
 
 Temp_C   26.850006103515625     
 QV1D   1.00000005E-03
 Press_hPa   1013.0000000000000     
 T1D   300.000000    
 avRh   4.6088495254516602     
 avkdn,kup,ldown,lup,tsurf
   514.84271240234375        51.484272007409800        319.89623947467283        489.42821373209352        33.027921211127534     
 ,qn1,qf,qs,qh,qeOut
   293.82646613751325        0.0000000000000000        95.581153182155575                            NaN                       NaN
 
 Temp_C   26.850006103515625     
 QV1D   1.00000005E-03
 Press_hPa   1013.0000000000000     
 T1D   300.000000    
 avRh   4.6088495254516602     
 avkdn,kup,ldown,lup,tsurf
   522.96154785156250        52.296155564429682        319.89623947467283        490.01276987040359        33.122391319494227     
 ,qn1,qf,qs,qh,qeOut
   300.54886189140205        0.0000000000000000        98.454603807486336       -1410.4794822926574        1612.5737403765731     
 
Timing for main: time 2010-09-01_00:25:00 on domain   1:    0.01897 elapsed seconds
Timing for Writing wrfout_d01_2010-09-01_00:25:00 for domain        1:    0.01237 elapsed seconds
 year =         2010 day =          244 hour =            0 minute =           25
 soilmoist   0.0000000000000000        0.0000000000000000        0.0000000000000000        0.0000000000000000        0.0000000000000000        0.0000000000000000        0.0000000000000000     
 state   0.0000000000000000        0.0000000000000000        0.0000000000000000                            NaN                       NaN   0.0000000000000000        0.0000000000000000     
 soilmoist   150.00000000000000        150.00000000000000        150.00000000000000        150.00000000000000        150.00000000000000        150.00000000000000        0.0000000000000000     
 state  0.10000000149011612       0.10000000149011612       0.15000000596046448       0.15000000596046448       0.15000000596046448       0.15000000596046448        20000.000000000000     
 Temp_C   26.850006103515625     
 QV1D   1.00000005E-03
 Press_hPa   1013.0000000000000     
 T1D   300.000000    
 avRh   4.6088495254516602     
 avkdn,kup,ldown,lup,tsurf
   502.26062011718750        22.785053242341966        319.89623947467283        493.08314315162289        33.121121602001324     
 ,qn1,qf,qs,qh,qeOut
   306.28864482125772        0.0000000000000000       -2595.4347579024452        2136.6179723936011        765.10543033010185     
 
 HFX =    2136.6179723936011      LH =    765.10543033010185     
 after
 HFX =    50.0000000     LH =    60.0000000    
 
 Temp_C   26.850006103515625     
 QV1D   1.00000005E-03
 Press_hPa   1013.0000000000000     
 T1D   300.000000    
 avRh   4.6088495254516602     
 avkdn,kup,ldown,lup,tsurf
   508.46514892578125        23.352295094203065        319.89623947467283        493.79645087442060        33.182267735840298     
 ,qn1,qf,qs,qh,qeOut
   311.21264436050956        0.0000000000000000       -2276.3556528983731                            NaN                       NaN
 
 Temp_C   26.850006103515625     
 QV1D   1.00000005E-03
 Press_hPa   1013.0000000000000     
 T1D   300.000000    
 avRh   4.6088495254516602     
 avkdn,kup,ldown,lup,tsurf
   514.08087158203125        37.621713946906631        319.89623947467283        491.77929068781435        33.133482225893445     
 ,qn1,qf,qs,qh,qeOut
   304.57613729587604        0.0000000000000000       -1014.4224564594662                            NaN                       NaN
 
 Temp_C   26.850006103515625     
 QV1D   1.00000005E-03
 Press_hPa   1013.0000000000000     
 T1D   300.000000    
 avRh   4.6088495254516602     
 avkdn,kup,ldown,lup,tsurf
   522.82281494140625        45.481603560584055        319.89623947467283        491.16724173909358        33.177815134009478     
 ,qn1,qf,qs,qh,qeOut
   306.07016320306963        0.0000000000000000       -200.62985008224439                            NaN                       NaN
 
 Temp_C   26.850006103515625     
 QV1D   1.00000005E-03
 Press_hPa   1013.0000000000000     
 T1D   300.000000    
 avRh   4.6088495254516602     
 avkdn,kup,ldown,lup,tsurf
   530.67816162109375        52.201715177972460        319.89623947467283        490.71891256013447        33.219177838004150     
 ,qn1,qf,qs,qh,qeOut
   307.65377211991091        0.0000000000000000        64.359968908419361       -1370.2264846954747        1613.5202879069661     
 
 Temp_C   26.850006103515625     
 QV1D   1.00000005E-03
 Press_hPa   1013.0000000000000     
 T1D   300.000000    
 avRh   4.6088495254516602     
 avkdn,kup,ldown,lup,tsurf
   499.89370727539062        14.352785387835880        319.89623947467283        494.62944129697354        33.152698083277933     
 ,qn1,qf,qs,qh,qeOut
   310.80771643868189        0.0000000000000000       -2442.9549618166629                            NaN                       NaN
 
 Temp_C   26.850006103515625     
 QV1D   1.00000005E-03
 Press_hPa   1013.0000000000000     
 T1D   300.000000    
 avRh   4.6088495254516602     
 avkdn,kup,ldown,lup,tsurf
   506.90621948242188        12.529210762225421        319.89623947467283        495.70140626526899        33.247178300015847     
 ,qn1,qf,qs,qh,qeOut
   318.57179120454634        0.0000000000000000       -3593.0648770217413                            NaN                       NaN
 
 Temp_C   26.850006103515625     
 QV1D   1.00000005E-03
 Press_hPa   1013.0000000000000     
 T1D   300.000000    
 avRh   4.6088495254516602     
 avkdn,kup,ldown,lup,tsurf
   515.19018554687500        31.876610431943810        319.89623947467283        492.86070633865279        33.194575783055839     
 ,qn1,qf,qs,qh,qeOut
   310.34910008473531        0.0000000000000000       -2857.3306572173760                            NaN                       NaN
 
 Temp_C   26.850006103515625     
 QV1D   1.00000005E-03
 Press_hPa   1013.0000000000000     
 T1D   300.000000    
 avRh   4.6088495254516602     
 avkdn,kup,ldown,lup,tsurf
   520.87750244140625        46.465579992153351        319.89623947467283        490.86054825137660        33.143683074434570     
 ,qn1,qf,qs,qh,qeOut
   303.44759967585986        0.0000000000000000       -502.29880530482103                            NaN                       NaN
 
 Temp_C   26.850006103515625     
 QV1D   1.00000005E-03
 Press_hPa   1013.0000000000000     
 T1D   300.000000    
 avRh   4.6088495254516602     
 avkdn,kup,ldown,lup,tsurf
   528.98278808593750        52.352536296940677        319.89623947467283        490.54086166468932        33.196890924575179     
 ,qn1,qf,qs,qh,qeOut
   305.98560517746381        0.0000000000000000        73.024545385834429                            NaN                       NaN
 
 Temp_C   26.850006103515625     
 QV1D   1.00000005E-03
 Press_hPa   1013.0000000000000     
 T1D   300.000000    
 avRh   4.6088495254516602     
 avkdn,kup,ldown,lup,tsurf
   497.92929077148438        32.491239986187935        319.89623947467283        491.27996568886738        32.974443147419890     
 ,qn1,qf,qs,qh,qeOut
   294.05431600243384        0.0000000000000000       -1807.3010461563620                            NaN                       NaN
 
 Temp_C   26.850006103515625     
 QV1D   1.00000005E-03
 Press_hPa   1013.0000000000000     
 T1D   300.000000    
 avRh   4.6088495254516602     
 avkdn,kup,ldown,lup,tsurf
   505.27542114257812        23.432820269875482        319.89623947467283        493.36166109313814        33.147484880717087     
 ,qn1,qf,qs,qh,qeOut
   308.37717762117273        0.0000000000000000       -2653.8284243847665                            NaN                       NaN
 
 Temp_C   26.850006103515625     
 QV1D   1.00000005E-03
 Press_hPa   1013.0000000000000     
 T1D   300.000000    
 avRh   4.6088495254516602     
 avkdn,kup,ldown,lup,tsurf
   512.85772705078125        47.637181577394344        319.89623947467283        489.46396593020040        33.051701856948597     
 ,qn1,qf,qs,qh,qeOut
   295.65279919254118        0.0000000000000000       -2445.0065684557635                            NaN                       NaN
 
 Temp_C   26.850006103515625     
 QV1D   1.00000005E-03
 Press_hPa   1013.0000000000000     
 T1D   300.000000    
 avRh   4.6088495254516602     
 avkdn,kup,ldown,lup,tsurf
   518.99237060546875        48.235335742574833        319.89623947467283        490.33948738347931        33.107458952591564     
 ,qn1,qf,qs,qh,qeOut
   300.31383055904865        0.0000000000000000       -331.03300128789994                            NaN                       NaN
 
 Temp_C   26.850006103515625     
 QV1D   1.00000005E-03
 Press_hPa   1013.0000000000000     
 T1D   300.000000    
 avRh   4.6088495254516602     
 avkdn,kup,ldown,lup,tsurf
   527.26690673828125        52.726691459517042        319.89623947467283        490.32275570280541        33.172452676898388     
 ,qn1,qf,qs,qh,qeOut
   304.11369905063162        0.0000000000000000        99.978373597217143                            NaN                       NaN
 
 Temp_C   26.850006103515625     
 QV1D   1.00000005E-03
 Press_hPa   1013.0000000000000     
 T1D   300.000000    
 avRh   4.6088495254516602     
 avkdn,kup,ldown,lup,tsurf
   496.26126098632812        23.010362786741862        319.89623947467283        492.83646590319273        33.031072975615217     
 ,qn1,qf,qs,qh,qeOut
   300.31068127239018        0.0000000000000000       -3698.6880423005123                            NaN                       NaN
 
 Temp_C   26.850006103515625     
 QV1D   1.00000005E-03
 Press_hPa   1013.0000000000000     
 T1D   300.000000    
 avRh   4.6088495254516602     
 avkdn,kup,ldown,lup,tsurf
   503.64541625976562        19.520746123593220        319.89623947467283        494.18377672325119        33.148161504232277     
 ,qn1,qf,qs,qh,qeOut
   309.83712320443442        0.0000000000000000       -3709.7726022602651                            NaN                       NaN
 
 Temp_C   26.850006103515625     
 QV1D   1.00000005E-03
 Press_hPa   1013.0000000000000     

Program received signal SIGSEGV: Segmentation fault - invalid memory reference.

Backtrace for this error:
#0  0x170f6d57c
#1  0x170f6c913
#2  0x7fff76abcf59
#3  0x10bc96a9e
#4  0x10bcb6f47
#5  0x10bcda8bb
#6  0x10bcea7be
#7  0x10c2ca65e
#8  0x10c616d9d
#9  0x10c6768b9
#10  0x10b2f5f40
#11  0x10a8b767b
#12  0x10a850a59
#13  0x10c763cfe
